MODEL 1
REMARK VINA RESULT:      -5.1      0.000      0.000
REMARK  8 active torsions:
REMARK  status: ('A' for Active; 'I' for Inactive)
REMARK    1  A    between atoms: N_2  and  C_8 
REMARK    2  A    between atoms: N_2  and  C_10 
REMARK    3  A    between atoms: N_2  and  C_11 
REMARK    4  A    between atoms: N_3  and  C_7 
REMARK    5  A    between atoms: N_3  and  C_12 
REMARK    6  A    between atoms: C_5  and  C_6 
REMARK    7  A    between atoms: C_5  and  C_7 
REMARK    8  A    between atoms: C_6  and  C_8 
ROOT
HETATM    1 Cl   UNK     0      -4.505 -11.492  -5.744  0.00  0.00    -0.084 Cl
HETATM    2  N   UNK     0      -4.265  -9.676 -10.476  0.00  0.00    -0.260 NA
HETATM    3  C   UNK     0      -2.888  -7.358  -9.672  0.00  0.00     0.042 A 
HETATM    4  C   UNK     0      -3.273  -8.345  -8.730  0.00  0.00     0.019 A 
HETATM    5  C   UNK     0      -3.215  -7.572 -11.020  0.00  0.00     0.049 A 
HETATM    6  C   UNK     0      -3.962  -9.491  -9.178  0.00  0.00     0.070 A 
HETATM    7  C   UNK     0      -2.973  -8.184  -7.366  0.00  0.00     0.018 A 
HETATM    8  C   UNK     0      -3.891  -8.725 -11.362  0.00  0.00     0.119 A 
HETATM    9  C   UNK     0      -4.329 -10.445  -8.232  0.00  0.00     0.056 A 
HETATM   10  C   UNK     0      -3.352  -9.154  -6.443  0.00  0.00     0.025 A 
HETATM   11  C   UNK     0      -4.031 -10.286  -6.876  0.00  0.00     0.036 A 
ENDROOT
BRANCH   3  12
HETATM   12  N   UNK     0      -2.208  -6.206  -9.318  0.00  0.00    -0.385 N 
HETATM   13  H   UNK     0      -2.464  -5.724  -8.466  0.00  0.00     0.160 HD
BRANCH  12  14
HETATM   14  C   UNK     0      -1.047  -5.710 -10.028  0.00  0.00     0.077 C 
HETATM   15  C   UNK     0      -0.946  -4.205  -9.805  0.00  0.00     0.032 C 
BRANCH  14  16
HETATM   16  C   UNK     0       0.220  -6.424  -9.536  0.00  0.00     0.026 C 
BRANCH  16  17
HETATM   17  C   UNK     0       0.182  -6.720  -8.031  0.00  0.00     0.032 C 
BRANCH  17  18
HETATM   18  C   UNK     0       1.316  -6.001  -7.301  0.00  0.00     0.272 C 
BRANCH  18  19
HETATM   19  N   UNK     0       1.158  -6.143  -5.857  0.00  0.00     0.087 N 
BRANCH  19  20
HETATM   20  C   UNK     0       2.370  -6.708  -5.260  0.00  0.00     0.268 C 
HETATM   21  C   UNK     0       2.184  -8.179  -4.929  0.00  0.00     0.037 C 
ENDBRANCH  19  20
BRANCH  19  22
HETATM   22  C   UNK     0       0.000  -6.982  -5.546  0.00  0.00     0.268 C 
HETATM   23  C   UNK     0      -0.972  -6.259  -4.629  0.00  0.00     0.037 C 
ENDBRANCH  19  22
ENDBRANCH  18  19
ENDBRANCH  17  18
ENDBRANCH  16  17
ENDBRANCH  14  16
ENDBRANCH  12  14
ENDBRANCH   3  12
TORSDOF 8
ENDMDL
MODEL 2
REMARK VINA RESULT:      -5.0     30.407     33.839
REMARK  8 active torsions:
REMARK  status: ('A' for Active; 'I' for Inactive)
REMARK    1  A    between atoms: N_2  and  C_8 
REMARK    2  A    between atoms: N_2  and  C_10 
REMARK    3  A    between atoms: N_2  and  C_11 
REMARK    4  A    between atoms: N_3  and  C_7 
REMARK    5  A    between atoms: N_3  and  C_12 
REMARK    6  A    between atoms: C_5  and  C_6 
REMARK    7  A    between atoms: C_5  and  C_7 
REMARK    8  A    between atoms: C_6  and  C_8 
ROOT
HETATM    1 Cl   UNK     0     -31.398 -23.455   3.934  0.00  0.00    -0.084 Cl
HETATM    2  N   UNK     0     -27.998 -21.336   0.820  0.00  0.00    -0.260 NA
HETATM    3  C   UNK     0     -27.256 -23.812  -0.292  0.00  0.00     0.042 A 
HETATM    4  C   UNK     0     -28.247 -23.730   0.719  0.00  0.00     0.019 A 
HETATM    5  C   UNK     0     -26.655 -22.619  -0.721  0.00  0.00     0.049 A 
HETATM    6  C   UNK     0     -28.588 -22.468   1.247  0.00  0.00     0.070 A 
HETATM    7  C   UNK     0     -28.883 -24.892   1.189  0.00  0.00     0.018 A 
HETATM    8  C   UNK     0     -27.054 -21.431  -0.145  0.00  0.00     0.119 A 
HETATM    9  C   UNK     0     -29.564 -22.415   2.239  0.00  0.00     0.056 A 
HETATM   10  C   UNK     0     -29.856 -24.809   2.181  0.00  0.00     0.025 A 
HETATM   11  C   UNK     0     -30.197 -23.570   2.706  0.00  0.00     0.036 A 
ENDROOT
BRANCH   3  12
HETATM   12  N   UNK     0     -26.864 -25.009  -0.865  0.00  0.00    -0.385 N 
HETATM   13  H   UNK     0     -26.019 -25.459  -0.538  0.00  0.00     0.160 HD
BRANCH  12  14
HETATM   14  C   UNK     0     -27.669 -25.739  -1.823  0.00  0.00     0.077 C 
HETATM   15  C   UNK     0     -27.351 -25.217  -3.221  0.00  0.00     0.032 C 
BRANCH  14  16
HETATM   16  C   UNK     0     -27.382 -27.243  -1.721  0.00  0.00     0.026 C 
BRANCH  16  17
HETATM   17  C   UNK     0     -28.470 -27.998  -0.946  0.00  0.00     0.032 C 
BRANCH  17  18
HETATM   18  C   UNK     0     -29.849 -27.756  -1.558  0.00  0.00     0.272 C 
BRANCH  18  19
HETATM   19  N   UNK     0     -30.895 -28.068  -0.589  0.00  0.00     0.087 N 
BRANCH  19  20
HETATM   20  C   UNK     0     -31.729 -29.171  -1.068  0.00  0.00     0.268 C 
HETATM   21  C   UNK     0     -31.540 -29.394  -2.560  0.00  0.00     0.037 C 
ENDBRANCH  19  20
BRANCH  19  22
HETATM   22  C   UNK     0     -31.717 -26.887  -0.323  0.00  0.00     0.268 C 
HETATM   23  C   UNK     0     -31.592 -25.867  -1.442  0.00  0.00     0.037 C 
ENDBRANCH  19  22
ENDBRANCH  18  19
ENDBRANCH  17  18
ENDBRANCH  16  17
ENDBRANCH  14  16
ENDBRANCH  12  14
ENDBRANCH   3  12
TORSDOF 8
ENDMDL
MODEL 3
REMARK VINA RESULT:      -4.7      2.132      2.684
REMARK  8 active torsions:
REMARK  status: ('A' for Active; 'I' for Inactive)
REMARK    1  A    between atoms: N_2  and  C_8 
REMARK    2  A    between atoms: N_2  and  C_10 
REMARK    3  A    between atoms: N_2  and  C_11 
REMARK    4  A    between atoms: N_3  and  C_7 
REMARK    5  A    between atoms: N_3  and  C_12 
REMARK    6  A    between atoms: C_5  and  C_6 
REMARK    7  A    between atoms: C_5  and  C_7 
REMARK    8  A    between atoms: C_6  and  C_8 
ROOT
HETATM    1 Cl   UNK     0      -4.579 -11.179  -5.771  0.00  0.00    -0.084 Cl
HETATM    2  N   UNK     0      -4.441 -10.115 -10.731  0.00  0.00    -0.260 NA
HETATM    3  C   UNK     0      -3.279  -7.588 -10.306  0.00  0.00     0.042 A 
HETATM    4  C   UNK     0      -3.588  -8.445  -9.218  0.00  0.00     0.019 A 
HETATM    5  C   UNK     0      -3.570  -8.039 -11.602  0.00  0.00     0.049 A 
HETATM    6  C   UNK     0      -4.170  -9.703  -9.479  0.00  0.00     0.070 A 
HETATM    7  C   UNK     0      -3.319  -8.046  -7.898  0.00  0.00     0.018 A 
HETATM    8  C   UNK     0      -4.139  -9.287 -11.757  0.00  0.00     0.119 A 
HETATM    9  C   UNK     0      -4.464 -10.525  -8.393  0.00  0.00     0.056 A 
HETATM   10  C   UNK     0      -3.624  -8.888  -6.832  0.00  0.00     0.025 A 
HETATM   11  C   UNK     0      -4.197 -10.128  -7.081  0.00  0.00     0.036 A 
ENDROOT
BRANCH   3  12
HETATM   12  N   UNK     0      -2.705  -6.340 -10.138  0.00  0.00    -0.385 N 
HETATM   13  H   UNK     0      -3.004  -5.759  -9.366  0.00  0.00     0.160 HD
BRANCH  12  14
HETATM   14  C   UNK     0      -1.593  -5.857 -10.931  0.00  0.00     0.077 C 
HETATM   15  C   UNK     0      -2.028  -4.589 -11.658  0.00  0.00     0.032 C 
BRANCH  14  16
HETATM   16  C   UNK     0      -0.379  -5.584 -10.031  0.00  0.00     0.026 C 
BRANCH  16  17
HETATM   17  C   UNK     0      -0.755  -5.500  -8.546  0.00  0.00     0.032 C 
BRANCH  17  18
HETATM   18  C   UNK     0      -0.906  -4.046  -8.099  0.00  0.00     0.272 C 
BRANCH  18  19
HETATM   19  N   UNK     0      -1.273  -3.986  -6.688  0.00  0.00     0.087 N 
BRANCH  19  20
HETATM   20  C   UNK     0      -2.620  -3.434  -6.530  0.00  0.00     0.268 C 
HETATM   21  C   UNK     0      -3.404  -4.195  -5.473  0.00  0.00     0.037 C 
ENDBRANCH  19  20
BRANCH  19  22
HETATM   22  C   UNK     0      -0.304  -3.186  -5.938  0.00  0.00     0.268 C 
HETATM   23  C   UNK     0      -0.062  -1.845  -6.610  0.00  0.00     0.037 C 
ENDBRANCH  19  22
ENDBRANCH  18  19
ENDBRANCH  17  18
ENDBRANCH  16  17
ENDBRANCH  14  16
ENDBRANCH  12  14
ENDBRANCH   3  12
TORSDOF 8
ENDMDL
MODEL 4
REMARK VINA RESULT:      -4.7     31.642     34.378
REMARK  8 active torsions:
REMARK  status: ('A' for Active; 'I' for Inactive)
REMARK    1  A    between atoms: N_2  and  C_8 
REMARK    2  A    between atoms: N_2  and  C_10 
REMARK    3  A    between atoms: N_2  and  C_11 
REMARK    4  A    between atoms: N_3  and  C_7 
REMARK    5  A    between atoms: N_3  and  C_12 
REMARK    6  A    between atoms: C_5  and  C_6 
REMARK    7  A    between atoms: C_5  and  C_7 
REMARK    8  A    between atoms: C_6  and  C_8 
ROOT
HETATM    1 Cl   UNK     0     -20.671 -36.158   7.370  0.00  0.00    -0.084 Cl
HETATM    2  N   UNK     0     -24.388 -34.294   4.462  0.00  0.00    -0.260 NA
HETATM    3  C   UNK     0     -23.680 -31.627   5.013  0.00  0.00     0.042 A 
HETATM    4  C   UNK     0     -22.958 -32.709   5.578  0.00  0.00     0.019 A 
HETATM    5  C   UNK     0     -24.760 -31.928   4.169  0.00  0.00     0.049 A 
HETATM    6  C   UNK     0     -23.348 -34.030   5.274  0.00  0.00     0.070 A 
HETATM    7  C   UNK     0     -21.867 -32.469   6.431  0.00  0.00     0.018 A 
HETATM    8  C   UNK     0     -25.066 -33.252   3.930  0.00  0.00     0.119 A 
HETATM    9  C   UNK     0     -22.622 -35.074   5.843  0.00  0.00     0.056 A 
HETATM   10  C   UNK     0     -21.160 -33.532   6.986  0.00  0.00     0.025 A 
HETATM   11  C   UNK     0     -21.538 -34.835   6.691  0.00  0.00     0.036 A 
ENDROOT
BRANCH   3  12
HETATM   12  N   UNK     0     -23.363 -30.303   5.257  0.00  0.00    -0.385 N 
HETATM   13  H   UNK     0     -23.092 -30.025   6.191  0.00  0.00     0.160 HD
BRANCH  12  14
HETATM   14  C   UNK     0     -23.263 -29.298   4.218  0.00  0.00     0.077 C 
HETATM   15  C   UNK     0     -22.477 -28.111   4.765  0.00  0.00     0.032 C 
BRANCH  14  16
HETATM   16  C   UNK     0     -22.578 -29.886   2.977  0.00  0.00     0.026 C 
BRANCH  16  17
HETATM   17  C   UNK     0     -21.060 -29.664   2.982  0.00  0.00     0.032 C 
BRANCH  17  18
HETATM   18  C   UNK     0     -20.331 -30.863   3.589  0.00  0.00     0.272 C 
BRANCH  18  19
HETATM   19  N   UNK     0     -19.932 -31.797   2.542  0.00  0.00     0.087 N 
BRANCH  19  20
HETATM   20  C   UNK     0     -19.971 -31.147   1.230  0.00  0.00     0.268 C 
HETATM   21  C   UNK     0     -20.705 -32.006   0.214  0.00  0.00     0.037 C 
ENDBRANCH  19  20
BRANCH  19  22
HETATM   22  C   UNK     0     -20.796 -32.978   2.550  0.00  0.00     0.268 C 
HETATM   23  C   UNK     0     -20.115 -34.152   3.232  0.00  0.00     0.037 C 
ENDBRANCH  19  22
ENDBRANCH  18  19
ENDBRANCH  17  18
ENDBRANCH  16  17
ENDBRANCH  14  16
ENDBRANCH  12  14
ENDBRANCH   3  12
TORSDOF 8
ENDMDL
MODEL 5
REMARK VINA RESULT:      -4.6     42.181     45.235
REMARK  8 active torsions:
REMARK  status: ('A' for Active; 'I' for Inactive)
REMARK    1  A    between atoms: N_2  and  C_8 
REMARK    2  A    between atoms: N_2  and  C_10 
REMARK    3  A    between atoms: N_2  and  C_11 
REMARK    4  A    between atoms: N_3  and  C_7 
REMARK    5  A    between atoms: N_3  and  C_12 
REMARK    6  A    between atoms: C_5  and  C_6 
REMARK    7  A    between atoms: C_5  and  C_7 
REMARK    8  A    between atoms: C_6  and  C_8 
ROOT
HETATM    1 Cl   UNK     0     -48.725 -16.665   2.521  0.00  0.00    -0.084 Cl
HETATM    2  N   UNK     0     -48.166 -21.520   1.154  0.00  0.00    -0.260 NA
HETATM    3  C   UNK     0     -45.433 -21.546   1.823  0.00  0.00     0.042 A 
HETATM    4  C   UNK     0     -46.218 -20.376   1.991  0.00  0.00     0.019 A 
HETATM    5  C   UNK     0     -46.062 -22.691   1.311  0.00  0.00     0.049 A 
HETATM    6  C   UNK     0     -47.584 -20.409   1.643  0.00  0.00     0.070 A 
HETATM    7  C   UNK     0     -45.643 -19.199   2.499  0.00  0.00     0.018 A 
HETATM    8  C   UNK     0     -47.405 -22.626   0.999  0.00  0.00     0.119 A 
HETATM    9  C   UNK     0     -48.332 -19.247   1.818  0.00  0.00     0.056 A 
HETATM   10  C   UNK     0     -46.414 -18.052   2.663  0.00  0.00     0.025 A 
HETATM   11  C   UNK     0     -47.760 -18.077   2.323  0.00  0.00     0.036 A 
ENDROOT
BRANCH   3  12
HETATM   12  N   UNK     0     -44.088 -21.600   2.141  0.00  0.00    -0.385 N 
HETATM   13  H   UNK     0     -43.809 -21.559   3.113  0.00  0.00     0.160 HD
BRANCH  12  14
HETATM   14  C   UNK     0     -43.044 -21.850   1.168  0.00  0.00     0.077 C 
HETATM   15  C   UNK     0     -43.079 -20.740   0.122  0.00  0.00     0.032 C 
BRANCH  14  16
HETATM   16  C   UNK     0     -41.676 -21.908   1.861  0.00  0.00     0.026 C 
BRANCH  16  17
HETATM   17  C   UNK     0     -40.603 -21.105   1.115  0.00  0.00     0.032 C 
BRANCH  17  18
HETATM   18  C   UNK     0     -39.803 -22.000   0.170  0.00  0.00     0.272 C 
BRANCH  18  19
HETATM   19  N   UNK     0     -39.021 -21.189  -0.757  0.00  0.00     0.087 N 
BRANCH  19  20
HETATM   20  C   UNK     0     -39.352 -19.771  -0.605  0.00  0.00     0.268 C 
HETATM   21  C   UNK     0     -38.652 -18.928  -1.659  0.00  0.00     0.037 C 
ENDBRANCH  19  20
BRANCH  19  22
HETATM   22  C   UNK     0     -39.250 -21.619  -2.137  0.00  0.00     0.268 C 
HETATM   23  C   UNK     0     -40.561 -22.376  -2.265  0.00  0.00     0.037 C 
ENDBRANCH  19  22
ENDBRANCH  18  19
ENDBRANCH  17  18
ENDBRANCH  16  17
ENDBRANCH  14  16
ENDBRANCH  12  14
ENDBRANCH   3  12
TORSDOF 8
ENDMDL
MODEL 6
REMARK VINA RESULT:      -4.6     41.152     44.521
REMARK  8 active torsions:
REMARK  status: ('A' for Active; 'I' for Inactive)
REMARK    1  A    between atoms: N_2  and  C_8 
REMARK    2  A    between atoms: N_2  and  C_10 
REMARK    3  A    between atoms: N_2  and  C_11 
REMARK    4  A    between atoms: N_3  and  C_7 
REMARK    5  A    between atoms: N_3  and  C_12 
REMARK    6  A    between atoms: C_5  and  C_6 
REMARK    7  A    between atoms: C_5  and  C_7 
REMARK    8  A    between atoms: C_6  and  C_8 
ROOT
HETATM    1 Cl   UNK     0     -38.837 -16.271   0.834  0.00  0.00    -0.084 Cl
HETATM    2  N   UNK     0     -39.249 -20.545  -1.870  0.00  0.00    -0.260 NA
HETATM    3  C   UNK     0     -41.314 -21.548  -0.242  0.00  0.00     0.042 A 
HETATM    4  C   UNK     0     -40.723 -20.285   0.018  0.00  0.00     0.019 A 
HETATM    5  C   UNK     0     -40.837 -22.284  -1.337  0.00  0.00     0.049 A 
HETATM    6  C   UNK     0     -39.692 -19.822  -0.824  0.00  0.00     0.070 A 
HETATM    7  C   UNK     0     -41.161 -19.503   1.101  0.00  0.00     0.018 A 
HETATM    8  C   UNK     0     -39.822 -21.748  -2.104  0.00  0.00     0.119 A 
HETATM    9  C   UNK     0     -39.129 -18.578  -0.547  0.00  0.00     0.056 A 
HETATM   10  C   UNK     0     -40.580 -18.264   1.355  0.00  0.00     0.025 A 
HETATM   11  C   UNK     0     -39.563 -17.802   0.530  0.00  0.00     0.036 A 
ENDROOT
BRANCH   3  12
HETATM   12  N   UNK     0     -42.332 -22.075   0.533  0.00  0.00    -0.385 N 
HETATM   13  H   UNK     0     -42.175 -22.219   1.522  0.00  0.00     0.160 HD
BRANCH  12  14
HETATM   14  C   UNK     0     -43.673 -22.313   0.039  0.00  0.00     0.077 C 
HETATM   15  C   UNK     0     -44.307 -23.423   0.872  0.00  0.00     0.032 C 
BRANCH  14  16
HETATM   16  C   UNK     0     -44.504 -21.025   0.117  0.00  0.00     0.026 C 
BRANCH  16  17
HETATM   17  C   UNK     0     -45.351 -20.794  -1.140  0.00  0.00     0.032 C 
BRANCH  17  18
HETATM   18  C   UNK     0     -46.606 -21.666  -1.126  0.00  0.00     0.272 C 
BRANCH  18  19
HETATM   19  N   UNK     0     -47.270 -21.578   0.171  0.00  0.00     0.087 N 
BRANCH  19  20
HETATM   20  C   UNK     0     -47.973 -22.825   0.475  0.00  0.00     0.268 C 
HETATM   21  C   UNK     0     -47.848 -23.818  -0.669  0.00  0.00     0.037 C 
ENDBRANCH  19  20
BRANCH  19  22
HETATM   22  C   UNK     0     -48.201 -20.450   0.196  0.00  0.00     0.268 C 
HETATM   23  C   UNK     0     -48.292 -19.843   1.586  0.00  0.00     0.037 C 
ENDBRANCH  19  22
ENDBRANCH  18  19
ENDBRANCH  17  18
ENDBRANCH  16  17
ENDBRANCH  14  16
ENDBRANCH  12  14
ENDBRANCH   3  12
TORSDOF 8
ENDMDL
MODEL 7
REMARK VINA RESULT:      -4.5     32.147     34.711
REMARK  8 active torsions:
REMARK  status: ('A' for Active; 'I' for Inactive)
REMARK    1  A    between atoms: N_2  and  C_8 
REMARK    2  A    between atoms: N_2  and  C_10 
REMARK    3  A    between atoms: N_2  and  C_11 
REMARK    4  A    between atoms: N_3  and  C_7 
REMARK    5  A    between atoms: N_3  and  C_12 
REMARK    6  A    between atoms: C_5  and  C_6 
REMARK    7  A    between atoms: C_5  and  C_7 
REMARK    8  A    between atoms: C_6  and  C_8 
ROOT
HETATM    1 Cl   UNK     0     -18.193 -30.319   5.435  0.00  0.00    -0.084 Cl
HETATM    2  N   UNK     0     -23.003 -29.429   4.086  0.00  0.00    -0.260 NA
HETATM    3  C   UNK     0     -23.837 -32.020   4.801  0.00  0.00     0.042 A 
HETATM    4  C   UNK     0     -22.485 -31.616   4.955  0.00  0.00     0.019 A 
HETATM    5  C   UNK     0     -24.746 -31.087   4.282  0.00  0.00     0.049 A 
HETATM    6  C   UNK     0     -22.113 -30.308   4.583  0.00  0.00     0.070 A 
HETATM    7  C   UNK     0     -21.530 -32.508   5.470  0.00  0.00     0.018 A 
HETATM    8  C   UNK     0     -24.287 -29.830   3.946  0.00  0.00     0.119 A 
HETATM    9  C   UNK     0     -20.780 -29.937   4.743  0.00  0.00     0.056 A 
HETATM   10  C   UNK     0     -20.204 -32.110   5.619  0.00  0.00     0.025 A 
HETATM   11  C   UNK     0     -19.829 -30.823   5.256  0.00  0.00     0.036 A 
ENDROOT
BRANCH   3  12
HETATM   12  N   UNK     0     -24.286 -33.284   5.143  0.00  0.00    -0.385 N 
HETATM   13  H   UNK     0     -24.893 -33.391   5.945  0.00  0.00     0.160 HD
BRANCH  12  14
HETATM   14  C   UNK     0     -24.050 -34.463   4.335  0.00  0.00     0.077 C 
HETATM   15  C   UNK     0     -24.145 -35.693   5.233  0.00  0.00     0.032 C 
BRANCH  14  16
HETATM   16  C   UNK     0     -25.071 -34.537   3.192  0.00  0.00     0.026 C 
BRANCH  16  17
HETATM   17  C   UNK     0     -24.405 -34.632   1.813  0.00  0.00     0.032 C 
BRANCH  17  18
HETATM   18  C   UNK     0     -23.695 -33.327   1.454  0.00  0.00     0.272 C 
BRANCH  18  19
HETATM   19  N   UNK     0     -22.464 -33.606   0.720  0.00  0.00     0.087 N 
BRANCH  19  20
HETATM   20  C   UNK     0     -21.612 -32.417   0.675  0.00  0.00     0.268 C 
HETATM   21  C   UNK     0     -22.425 -31.150   0.887  0.00  0.00     0.037 C 
ENDBRANCH  19  20
BRANCH  19  22
HETATM   22  C   UNK     0     -22.767 -34.067  -0.635  0.00  0.00     0.268 C 
HETATM   23  C   UNK     0     -21.554 -33.944  -1.541  0.00  0.00     0.037 C 
ENDBRANCH  19  22
ENDBRANCH  18  19
ENDBRANCH  17  18
ENDBRANCH  16  17
ENDBRANCH  14  16
ENDBRANCH  12  14
ENDBRANCH   3  12
TORSDOF 8
ENDMDL
MODEL 8
REMARK VINA RESULT:      -4.4     32.074     35.927
REMARK  8 active torsions:
REMARK  status: ('A' for Active; 'I' for Inactive)
REMARK    1  A    between atoms: N_2  and  C_8 
REMARK    2  A    between atoms: N_2  and  C_10 
REMARK    3  A    between atoms: N_2  and  C_11 
REMARK    4  A    between atoms: N_3  and  C_7 
REMARK    5  A    between atoms: N_3  and  C_12 
REMARK    6  A    between atoms: C_5  and  C_6 
REMARK    7  A    between atoms: C_5  and  C_7 
REMARK    8  A    between atoms: C_6  and  C_8 
ROOT
HETATM    1 Cl   UNK     0     -18.101 -30.466   5.283  0.00  0.00    -0.084 Cl
HETATM    2  N   UNK     0     -22.788 -29.551   3.566  0.00  0.00    -0.260 NA
HETATM    3  C   UNK     0     -23.796 -31.965   4.602  0.00  0.00     0.042 A 
HETATM    4  C   UNK     0     -22.433 -31.609   4.767  0.00  0.00     0.019 A 
HETATM    5  C   UNK     0     -24.628 -31.076   3.906  0.00  0.00     0.049 A 
HETATM    6  C   UNK     0     -21.972 -30.389   4.231  0.00  0.00     0.070 A 
HETATM    7  C   UNK     0     -21.553 -32.461   5.456  0.00  0.00     0.018 A 
HETATM    8  C   UNK     0     -24.085 -29.905   3.417  0.00  0.00     0.119 A 
HETATM    9  C   UNK     0     -20.629 -30.064   4.407  0.00  0.00     0.056 A 
HETATM   10  C   UNK     0     -20.216 -32.111   5.616  0.00  0.00     0.025 A 
HETATM   11  C   UNK     0     -19.753 -30.911   5.091  0.00  0.00     0.036 A 
ENDROOT
BRANCH   3  12
HETATM   12  N   UNK     0     -24.331 -33.141   5.098  0.00  0.00    -0.385 N 
HETATM   13  H   UNK     0     -24.930 -33.106   5.913  0.00  0.00     0.160 HD
BRANCH  12  14
HETATM   14  C   UNK     0     -24.196 -34.423   4.438  0.00  0.00     0.077 C 
HETATM   15  C   UNK     0     -24.554 -35.522   5.433  0.00  0.00     0.032 C 
BRANCH  14  16
HETATM   16  C   UNK     0     -25.105 -34.483   3.203  0.00  0.00     0.026 C 
BRANCH  16  17
HETATM   17  C   UNK     0     -24.315 -34.461   1.888  0.00  0.00     0.032 C 
BRANCH  17  18
HETATM   18  C   UNK     0     -24.257 -35.851   1.257  0.00  0.00     0.272 C 
BRANCH  18  19
HETATM   19  N   UNK     0     -25.082 -35.896   0.054  0.00  0.00     0.087 N 
BRANCH  19  20
HETATM   20  C   UNK     0     -26.326 -36.623   0.309  0.00  0.00     0.268 C 
HETATM   21  C   UNK     0     -26.154 -37.623   1.441  0.00  0.00     0.037 C 
ENDBRANCH  19  20
BRANCH  19  22
HETATM   22  C   UNK     0     -24.348 -36.516  -1.050  0.00  0.00     0.268 C 
HETATM   23  C   UNK     0     -25.275 -36.853  -2.205  0.00  0.00     0.037 C 
ENDBRANCH  19  22
ENDBRANCH  18  19
ENDBRANCH  17  18
ENDBRANCH  16  17
ENDBRANCH  14  16
ENDBRANCH  12  14
ENDBRANCH   3  12
TORSDOF 8
ENDMDL
MODEL 9
REMARK VINA RESULT:      -4.4     43.585     46.496
REMARK  8 active torsions:
REMARK  status: ('A' for Active; 'I' for Inactive)
REMARK    1  A    between atoms: N_2  and  C_8 
REMARK    2  A    between atoms: N_2  and  C_10 
REMARK    3  A    between atoms: N_2  and  C_11 
REMARK    4  A    between atoms: N_3  and  C_7 
REMARK    5  A    between atoms: N_3  and  C_12 
REMARK    6  A    between atoms: C_5  and  C_6 
REMARK    7  A    between atoms: C_5  and  C_7 
REMARK    8  A    between atoms: C_6  and  C_8 
ROOT
HETATM    1 Cl   UNK     0     -50.641 -21.902  -1.586  0.00  0.00    -0.084 Cl
HETATM    2  N   UNK     0     -46.406 -24.240  -0.056  0.00  0.00    -0.260 NA
HETATM    3  C   UNK     0     -45.493 -21.981   1.351  0.00  0.00     0.042 A 
HETATM    4  C   UNK     0     -46.725 -21.959   0.650  0.00  0.00     0.019 A 
HETATM    5  C   UNK     0     -44.741 -23.166   1.323  0.00  0.00     0.049 A 
HETATM    6  C   UNK     0     -47.144 -23.115  -0.042  0.00  0.00     0.070 A 
HETATM    7  C   UNK     0     -47.521 -20.800   0.643  0.00  0.00     0.018 A 
HETATM    8  C   UNK     0     -45.233 -24.245   0.618  0.00  0.00     0.119 A 
HETATM    9  C   UNK     0     -48.358 -23.066  -0.723  0.00  0.00     0.056 A 
HETATM   10  C   UNK     0     -48.730 -20.780  -0.047  0.00  0.00     0.025 A 
HETATM   11  C   UNK     0     -49.148 -21.914  -0.730  0.00  0.00     0.036 A 
ENDROOT
BRANCH   3  12
HETATM   12  N   UNK     0     -45.010 -20.892   2.056  0.00  0.00    -0.385 N 
HETATM   13  H   UNK     0     -45.526 -20.555   2.858  0.00  0.00     0.160 HD
BRANCH  12  14
HETATM   14  C   UNK     0     -43.724 -20.278   1.798  0.00  0.00     0.077 C 
HETATM   15  C   UNK     0     -43.778 -19.592   0.436  0.00  0.00     0.032 C 
BRANCH  14  16
HETATM   16  C   UNK     0     -43.384 -19.272   2.906  0.00  0.00     0.026 C 
BRANCH  16  17
HETATM   17  C   UNK     0     -43.780 -17.836   2.540  0.00  0.00     0.032 C 
BRANCH  17  18
HETATM   18  C   UNK     0     -42.798 -16.826   3.133  0.00  0.00     0.272 C 
BRANCH  18  19
HETATM   19  N   UNK     0     -43.278 -15.465   2.917  0.00  0.00     0.087 N 
BRANCH  19  20
HETATM   20  C   UNK     0     -43.070 -14.650   4.115  0.00  0.00     0.268 C 
HETATM   21  C   UNK     0     -41.667 -14.064   4.143  0.00  0.00     0.037 C 
ENDBRANCH  19  20
BRANCH  19  22
HETATM   22  C   UNK     0     -44.694 -15.472   2.546  0.00  0.00     0.268 C 
HETATM   23  C   UNK     0     -45.544 -14.802   3.612  0.00  0.00     0.037 C 
ENDBRANCH  19  22
ENDBRANCH  18  19
ENDBRANCH  17  18
ENDBRANCH  16  17
ENDBRANCH  14  16
ENDBRANCH  12  14
ENDBRANCH   3  12
TORSDOF 8
ENDMDL
