REMARK  6 active torsions:
REMARK  status: ('A' for Active; 'I' for Inactive)
REMARK    1  A    between atoms: C_1  and  O_14 
REMARK    2  A    between atoms: C_2  and  C_3 
REMARK    3  A    between atoms: C_4  and  O_18 
REMARK    4  A    between atoms: C_5  and  C_11 
REMARK    5  A    between atoms: C_6  and  O_9 
REMARK    6  A    between atoms: C_11  and  C_12 
ROOT
HETATM    1  C   LIG     1      -1.608  -0.422   1.051  1.00  0.00     0.167 C 
HETATM    2  C   LIG     1      -1.844   0.969   0.394  1.00  0.00     0.052 C 
HETATM    3  C   LIG     1      -0.496  -1.261   0.365  1.00  0.00     0.180 C 
HETATM    4  C   LIG     1       0.675  -0.447  -0.126  1.00  0.00    -0.008 C 
HETATM    5  C   LIG     1       0.670   0.906  -0.091  1.00  0.00     0.120 C 
HETATM    6  C   LIG     1      -0.490   1.712   0.424  1.00  0.00     0.193 C 
HETATM    7  O   LIG     1      -0.376   2.848   0.822  1.00  0.00    -0.289 OA
HETATM    8  C   LIG     1      -2.863   1.757   1.220  1.00  0.00     0.027 C 
ENDROOT
BRANCH   4   9
HETATM    9  C   LIG     1       1.901  -1.189  -0.625  1.00  0.00     0.015 C 
HETATM   10  C   LIG     1       1.540  -2.503  -1.321  1.00  0.00     0.015 C 
BRANCH   9  11
HETATM   11  C   LIG     1       2.861  -1.404   0.571  1.00  0.00     0.004 C 
HETATM   12  C   LIG     1       4.206  -1.986   0.153  1.00  0.00     0.006 C 
ENDBRANCH   9  11
ENDBRANCH   4   9
BRANCH   3  13
HETATM   13  O   LIG     1      -0.073  -2.252   1.312  1.00  0.00    -0.388 OA
HETATM   14  H   LIG     1       0.727  -1.956   1.807  1.00  0.00     0.210 HD
ENDBRANCH   3  13
BRANCH   5  15
HETATM   15  O   LIG     1       1.831   1.510  -0.523  1.00  0.00    -0.352 OA
HETATM   16  C   LIG     1       1.815   2.943  -0.755  1.00  0.00     0.210 C 
ENDBRANCH   5  15
BRANCH   1  17
HETATM   17  O   LIG     1      -2.772  -1.250   0.930  1.00  0.00    -0.391 OA
HETATM   18  H   LIG     1      -3.496  -0.895   1.487  1.00  0.00     0.210 HD
ENDBRANCH   1  17
BRANCH   2  19
HETATM   19  C   LIG     1      -2.256   0.902  -1.098  1.00  0.00     0.015 C 
HETATM   20  C   LIG     1      -3.620   0.273  -1.353  1.00  0.00     0.006 C 
ENDBRANCH   2  19
TORSDOF 6
