REMARK  10 active torsions:
REMARK  status: ('A' for Active; 'I' for Inactive)
REMARK    1  A    between atoms: C_6  and  O_38 
REMARK    2  A    between atoms: C_13  and  O_39 
REMARK    3  A    between atoms: C_16  and  O_27 
REMARK    4  A    between atoms: C_17  and  C_29 
REMARK    5  A    between atoms: C_18  and  C_33 
REMARK    6  A    between atoms: C_19  and  O_25 
REMARK    7  A    between atoms: C_29  and  C_30 
REMARK    8  A    between atoms: C_30  and  O_32 
REMARK    9  A    between atoms: C_33  and  C_34 
REMARK   10  A    between atoms: C_34  and  O_36 
ROOT
HETATM    1  C   LIG     1      -3.148   2.885  -0.499  1.00  0.00     0.075 A 
HETATM    2  C   LIG     1      -3.180   1.511  -0.281  1.00  0.00     0.086 A 
HETATM    3  C   LIG     1      -2.015   0.719  -0.037  1.00  0.00     0.024 A 
HETATM    4  C   LIG     1      -0.782   1.427  -0.053  1.00  0.00     0.007 A 
HETATM    5  C   LIG     1      -0.710   2.808  -0.383  1.00  0.00     0.062 A 
HETATM    6  C   LIG     1      -1.900   3.530  -0.549  1.00  0.00     0.083 A 
HETATM    7  C   LIG     1      -1.993  -0.702   0.268  1.00  0.00     0.024 A 
HETATM    8  C   LIG     1      -0.741  -1.362   0.350  1.00  0.00     0.007 A 
HETATM    9  C   LIG     1       0.497  -0.642   0.052  1.00  0.00    -0.003 C 
HETATM   10  C   LIG     1       0.485   0.726   0.171  1.00  0.00    -0.003 C 
HETATM   11  C   LIG     1      -3.127  -1.511   0.586  1.00  0.00     0.086 A 
HETATM   12  C   LIG     1      -3.041  -2.809   1.072  1.00  0.00     0.075 A 
HETATM   13  C   LIG     1      -1.766  -3.386   1.228  1.00  0.00     0.083 A 
HETATM   14  C   LIG     1      -0.611  -2.689   0.844  1.00  0.00     0.062 A 
HETATM   15  C   LIG     1       0.724  -3.300   1.029  1.00  0.00     0.219 C 
HETATM   16  C   LIG     1       1.785  -2.702   0.142  1.00  0.00     0.126 C 
HETATM   17  C   LIG     1       1.671  -1.438  -0.345  1.00  0.00    -0.006 C 
HETATM   18  C   LIG     1       1.664   1.525   0.549  1.00  0.00    -0.006 C 
HETATM   19  C   LIG     1       1.727   2.822   0.144  1.00  0.00     0.126 C 
HETATM   20  C   LIG     1       0.595   3.460  -0.619  1.00  0.00     0.219 C 
HETATM   21  O   LIG     1      -4.482   1.069  -0.301  1.00  0.00    -0.325 OA
HETATM   22  O   LIG     1      -4.441  -1.106   0.466  1.00  0.00    -0.325 OA
HETATM   23  O   LIG     1       0.751   4.413  -1.349  1.00  0.00    -0.284 OA
HETATM   24  O   LIG     1       0.949  -4.203   1.803  1.00  0.00    -0.284 OA
HETATM   25  C   LIG     1      -4.770  -0.282  -0.648  1.00  0.00     0.351 C 
ENDROOT
BRANCH  17  26
HETATM   26  C   LIG     1       2.550  -0.844  -1.404  1.00  0.00     0.073 C 
BRANCH  26  27
HETATM   27  C   LIG     1       4.027  -1.289  -1.405  1.00  0.00     0.118 C 
HETATM   28  C   LIG     1       4.953  -0.211  -1.954  1.00  0.00     0.039 C 
BRANCH  27  29
HETATM   29  O   LIG     1       4.194  -2.392  -2.317  1.00  0.00    -0.396 OA
HETATM   30  H   LIG     1       3.649  -3.159  -2.027  1.00  0.00     0.210 HD
ENDBRANCH  27  29
ENDBRANCH  26  27
ENDBRANCH  17  26
BRANCH  16  31
HETATM   31  O   LIG     1       2.894  -3.423  -0.230  1.00  0.00    -0.351 OA
HETATM   32  C   LIG     1       3.032  -4.789   0.250  1.00  0.00     0.210 C 
ENDBRANCH  16  31
BRANCH  18  33
HETATM   33  C   LIG     1       2.631   0.918   1.522  1.00  0.00     0.073 C 
BRANCH  33  34
HETATM   34  C   LIG     1       4.130   1.111   1.209  1.00  0.00     0.118 C 
HETATM   35  C   LIG     1       4.973  -0.081   1.647  1.00  0.00     0.039 C 
BRANCH  34  36
HETATM   36  O   LIG     1       4.654   2.198   1.998  1.00  0.00    -0.396 OA
HETATM   37  H   LIG     1       4.140   3.020   1.842  1.00  0.00     0.210 HD
ENDBRANCH  34  36
ENDBRANCH  33  34
ENDBRANCH  18  33
BRANCH  13  38
HETATM   38  O   LIG     1      -1.607  -4.643   1.708  1.00  0.00    -0.360 OA
HETATM   39  H   LIG     1      -2.469  -5.061   1.983  1.00  0.00     0.217 HD
ENDBRANCH  13  38
BRANCH  19  40
HETATM   40  O   LIG     1       2.846   3.535   0.488  1.00  0.00    -0.351 OA
HETATM   41  C   LIG     1       2.913   4.944   0.130  1.00  0.00     0.210 C 
ENDBRANCH  19  40
BRANCH   6  42
HETATM   42  O   LIG     1      -1.796   4.866  -0.758  1.00  0.00    -0.360 OA
HETATM   43  H   LIG     1      -2.681   5.303  -0.897  1.00  0.00     0.217 HD
ENDBRANCH   6  42
TORSDOF 10
