REMARK  10 active torsions:
REMARK  status: ('A' for Active; 'I' for Inactive)
REMARK    1  A    between atoms: C_6  and  O_38 
REMARK    2  A    between atoms: C_13  and  O_39 
REMARK    3  A    between atoms: C_16  and  O_27 
REMARK    4  A    between atoms: C_17  and  C_29 
REMARK    5  A    between atoms: C_18  and  C_33 
REMARK    6  A    between atoms: C_19  and  O_25 
REMARK    7  A    between atoms: C_29  and  C_30 
REMARK    8  A    between atoms: C_30  and  O_32 
REMARK    9  A    between atoms: C_33  and  C_34 
REMARK   10  A    between atoms: C_34  and  O_36 
ROOT
HETATM    1  C   LIG     1      -2.560   2.636   1.474  1.00  0.00     0.075 A 
HETATM    2  C   LIG     1      -2.640   1.434   0.782  1.00  0.00     0.086 A 
HETATM    3  C   LIG     1      -1.503   0.685   0.346  1.00  0.00     0.024 A 
HETATM    4  C   LIG     1      -0.254   1.328   0.529  1.00  0.00     0.007 A 
HETATM    5  C   LIG     1      -0.130   2.572   1.214  1.00  0.00     0.062 A 
HETATM    6  C   LIG     1      -1.287   3.186   1.714  1.00  0.00     0.083 A 
HETATM    7  C   LIG     1      -1.523  -0.673  -0.173  1.00  0.00     0.024 A 
HETATM    8  C   LIG     1      -0.292  -1.374  -0.291  1.00  0.00     0.007 A 
HETATM    9  C   LIG     1       0.976  -0.708   0.019  1.00  0.00    -0.003 C 
HETATM   10  C   LIG     1       0.984   0.663   0.122  1.00  0.00    -0.003 C 
HETATM   11  C   LIG     1      -2.691  -1.414  -0.538  1.00  0.00     0.086 A 
HETATM   12  C   LIG     1      -2.666  -2.743  -0.950  1.00  0.00     0.075 A 
HETATM   13  C   LIG     1      -1.423  -3.383  -1.078  1.00  0.00     0.083 A 
HETATM   14  C   LIG     1      -0.228  -2.701  -0.803  1.00  0.00     0.062 A 
HETATM   15  C   LIG     1       1.064  -3.353  -1.095  1.00  0.00     0.219 C 
HETATM   16  C   LIG     1       2.206  -2.799  -0.291  1.00  0.00     0.126 C 
HETATM   17  C   LIG     1       2.158  -1.549   0.243  1.00  0.00    -0.006 C 
HETATM   18  C   LIG     1       2.146   1.517  -0.143  1.00  0.00    -0.006 C 
HETATM   19  C   LIG     1       2.248   2.718   0.487  1.00  0.00     0.126 C 
HETATM   20  C   LIG     1       1.191   3.189   1.449  1.00  0.00     0.219 C 
HETATM   21  O   LIG     1      -3.954   1.061   0.583  1.00  0.00    -0.325 OA
HETATM   22  O   LIG     1      -3.990  -0.965  -0.513  1.00  0.00    -0.325 OA
HETATM   23  O   LIG     1       1.416   4.003   2.318  1.00  0.00    -0.284 OA
HETATM   24  O   LIG     1       1.205  -4.247  -1.902  1.00  0.00    -0.284 OA
HETATM   25  C   LIG     1      -4.266   0.424  -0.653  1.00  0.00     0.351 C 
ENDROOT
BRANCH  17  26
HETATM   26  C   LIG     1       3.232  -1.107   1.194  1.00  0.00     0.073 C 
BRANCH  26  27
HETATM   27  C   LIG     1       2.930  -1.610   2.624  1.00  0.00     0.118 C 
HETATM   28  C   LIG     1       4.120  -1.386   3.555  1.00  0.00     0.039 C 
BRANCH  27  29
HETATM   29  O   LIG     1       1.771  -0.957   3.155  1.00  0.00    -0.396 OA
HETATM   30  H   LIG     1       1.889   0.009   3.202  1.00  0.00     0.210 HD
ENDBRANCH  27  29
ENDBRANCH  26  27
ENDBRANCH  17  26
BRANCH  16  31
HETATM   31  O   LIG     1       3.328  -3.535  -0.000  1.00  0.00    -0.351 OA
HETATM   32  C   LIG     1       3.470  -4.840  -0.626  1.00  0.00     0.210 C 
ENDBRANCH  16  31
BRANCH  18  33
HETATM   33  C   LIG     1       3.118   1.131  -1.218  1.00  0.00     0.073 C 
BRANCH  33  34
HETATM   34  C   LIG     1       2.655   1.671  -2.590  1.00  0.00     0.118 C 
HETATM   35  C   LIG     1       3.737   1.492  -3.652  1.00  0.00     0.039 C 
BRANCH  34  36
HETATM   36  O   LIG     1       1.452   1.015  -3.012  1.00  0.00    -0.396 OA
HETATM   37  H   LIG     1       1.574   0.051  -3.084  1.00  0.00     0.210 HD
ENDBRANCH  34  36
ENDBRANCH  33  34
ENDBRANCH  18  33
BRANCH  13  38
HETATM   38  O   LIG     1      -1.326  -4.677  -1.475  1.00  0.00    -0.360 OA
HETATM   39  H   LIG     1      -2.214  -5.085  -1.666  1.00  0.00     0.217 HD
ENDBRANCH  13  38
BRANCH  19  40
HETATM   40  O   LIG     1       3.335   3.486   0.151  1.00  0.00    -0.351 OA
HETATM   41  C   LIG     1       3.561   4.713   0.898  1.00  0.00     0.210 C 
ENDBRANCH  19  40
BRANCH   6  42
HETATM   42  O   LIG     1      -1.132   4.351   2.392  1.00  0.00    -0.360 OA
HETATM   43  H   LIG     1      -1.998   4.715   2.727  1.00  0.00     0.217 HD
ENDBRANCH   6  42
TORSDOF 10
