REMARK  3 active torsions:
REMARK  status: ('A' for Active; 'I' for Inactive)
REMARK    1  A    between atoms: CA_2  and  CB_4 
REMARK    2  A    between atoms: CB_4  and  CG_5 
REMARK    3  A    between atoms: CZ_9  and  OH_12 
ROOT
ATOM      1  N   TYR A   1       0.783   0.603  -0.797  1.00  0.00    -0.346 N 
ATOM      2  CA  TYR A   1       0.585  -0.367   0.302  1.00  0.00     0.181 C 
ATOM      3  C   TYR A   1       1.883  -1.169   0.547  1.00  0.00     0.243 C 
ATOM      4  O   TYR A   1       1.881  -2.349   0.853  1.00  0.00    -0.271 OA
ATOM      5  H   TYR A   1      -0.020   0.796  -1.399  1.00  0.00     0.163 HD
ATOM      6  N   PRO A   2       3.070  -0.429   0.529  1.00  0.00    -0.337 N 
ATOM      7  CA  PRO A   2       3.153   0.924  -0.091  1.00  0.00     0.179 C 
ATOM      8  C   PRO A   2       1.998   1.224  -1.058  1.00  0.00     0.241 C 
ATOM      9  CD  PRO A   2       4.386  -1.132   0.427  1.00  0.00     0.127 C 
ATOM     10  CG  PRO A   2       5.170  -0.394  -0.670  1.00  0.00     0.022 C 
ATOM     11  CB  PRO A   2       4.523   0.996  -0.802  1.00  0.00     0.037 C 
ATOM     12  O   PRO A   2       2.096   2.000  -1.994  1.00  0.00    -0.271 OA
ENDROOT
BRANCH   2  13
ATOM     13  CB  TYR A   1      -0.562  -1.340  -0.032  1.00  0.00     0.073 C 
BRANCH  13  14
ATOM     14  CG  TYR A   1      -1.903  -0.669   0.021  1.00  0.00    -0.056 A 
ATOM     15  CD1 TYR A   1      -2.575  -0.333  -1.169  1.00  0.00     0.010 A 
ATOM     16  CE1 TYR A   1      -3.817   0.291  -1.133  1.00  0.00     0.037 A 
ATOM     17  CZ  TYR A   1      -4.384   0.577   0.121  1.00  0.00     0.065 A 
ATOM     18  CE2 TYR A   1      -3.742   0.250   1.323  1.00  0.00     0.037 A 
ATOM     19  CD2 TYR A   1      -2.496  -0.378   1.259  1.00  0.00     0.010 A 
BRANCH  17  20
ATOM     20  OH  TYR A   1      -5.611   1.196   0.080  1.00  0.00    -0.361 OA
ATOM     21  HH  TYR A   1      -5.970   1.373   0.983  1.00  0.00     0.217 HD
ENDBRANCH  17  20
ENDBRANCH  13  14
ENDBRANCH   2  13
TORSDOF 3
