REMARK  3 active torsions:
REMARK  status: ('A' for Active; 'I' for Inactive)
REMARK    1  A    between atoms: CA_2  and  CB_4 
REMARK    2  A    between atoms: CB_4  and  CG_5 
REMARK    3  A    between atoms: CA_14  and  CB_16 
ROOT
ATOM      1  N   PHE A   1       0.242   0.717  -0.579  1.00  0.00    -0.346 N 
ATOM      2  CA  PHE A   1       0.002  -0.549   0.149  1.00  0.00     0.180 C 
ATOM      3  C   PHE A   1       1.236  -1.472   0.055  1.00  0.00     0.241 C 
ATOM      4  O   PHE A   1       1.167  -2.688   0.037  1.00  0.00    -0.271 OA
ATOM      5  H   PHE A   1      -0.545   1.107  -1.103  1.00  0.00     0.163 HD
ATOM      6  N   VAL A   2       2.477  -0.847   0.026  1.00  0.00    -0.346 N 
ATOM      7  CA  VAL A   2       2.649   0.623   0.062  1.00  0.00     0.180 C 
ATOM      8  C   VAL A   2       1.505   1.293  -0.727  1.00  0.00     0.241 C 
ATOM      9  O   VAL A   2       1.615   2.298  -1.404  1.00  0.00    -0.271 OA
ATOM     10  H   VAL A   2       3.321  -1.418  -0.062  1.00  0.00     0.163 HD
ENDROOT
BRANCH   2  11
ATOM     11  CB  PHE A   1      -1.222  -1.286  -0.414  1.00  0.00     0.073 C 
BRANCH  11  12
ATOM     12  CG  PHE A   1      -2.560  -0.664  -0.127  1.00  0.00    -0.056 A 
ATOM     13  CD1 PHE A   1      -3.683  -1.197  -0.785  1.00  0.00     0.007 A 
ATOM     14  CE1 PHE A   1      -4.954  -0.671  -0.552  1.00  0.00     0.001 A 
ATOM     15  CZ  PHE A   1      -5.122   0.395   0.340  1.00  0.00     0.000 A 
ATOM     16  CE2 PHE A   1      -4.011   0.923   1.001  1.00  0.00     0.001 A 
ATOM     17  CD2 PHE A   1      -2.734   0.398   0.770  1.00  0.00     0.007 A 
ENDBRANCH  11  12
ENDBRANCH   2  11
BRANCH   7  18
ATOM     18  CB  VAL A   2       4.049   1.036  -0.487  1.00  0.00     0.009 C 
ATOM     19  CG1 VAL A   2       4.280   2.531  -0.259  1.00  0.00     0.012 C 
ATOM     20  CG2 VAL A   2       5.164   0.224   0.181  1.00  0.00     0.012 C 
ENDBRANCH   7  18
TORSDOF 3
