REMARK  10 active torsions:
REMARK  status: ('A' for Active; 'I' for Inactive)
REMARK    1  A    between atoms: C_2  and  O_19 
REMARK    2  A    between atoms: C_6  and  O_18 
REMARK    3  A    between atoms: C_9  and  C_12 
REMARK    4  A    between atoms: C_15  and  O_31 
REMARK    5  A    between atoms: O_19  and  C_21 
REMARK    6  A    between atoms: C_22  and  O_24 
REMARK    7  A    between atoms: C_23  and  C_27 
REMARK    8  A    between atoms: O_25  and  C_29 
REMARK    9  A    between atoms: O_26  and  C_28 
REMARK   10  A    between atoms: C_27  and  O_30 
ROOT
HETATM    1  C   LIG     1       8.213 -11.309  -1.803  1.00  0.00     0.074 A 
HETATM    2  C   LIG     1       8.087 -12.460  -1.017  1.00  0.00     0.077 A 
HETATM    3  C   LIG     1       9.073 -12.862  -0.101  1.00  0.00     0.075 A 
HETATM    4  C   LIG     1      10.211 -12.059  -0.005  1.00  0.00     0.094 A 
HETATM    5  C   LIG     1      10.416 -10.890  -0.763  1.00  0.00     0.082 A 
HETATM    6  C   LIG     1       9.380 -10.541  -1.666  1.00  0.00     0.085 A 
HETATM    7  O   LIG     1      11.146 -12.504   0.912  1.00  0.00    -0.321 OA
HETATM    8  C   LIG     1      12.333 -11.795   1.031  1.00  0.00     0.159 A 
HETATM    9  C   LIG     1      12.632 -10.679   0.340  1.00  0.00     0.048 A 
HETATM   10  C   LIG     1      11.634 -10.076  -0.602  1.00  0.00     0.200 A 
HETATM   11  O   LIG     1      11.808  -9.013  -1.155  1.00  0.00    -0.286 OA
ENDROOT
BRANCH   2  12
HETATM   12  O   LIG     1       7.012 -13.306  -1.050  1.00  0.00    -0.318 OA
BRANCH  12  13
HETATM   13  C   LIG     1       5.954 -13.147  -2.056  1.00  0.00     0.298 C 
HETATM   14  O   LIG     1       5.372 -11.886  -1.866  1.00  0.00    -0.348 OA
HETATM   15  C   LIG     1       4.139 -11.828  -1.096  1.00  0.00     0.179 C 
HETATM   16  C   LIG     1       4.133 -12.805   0.099  1.00  0.00     0.180 C 
HETATM   17  C   LIG     1       4.427 -14.263  -0.322  1.00  0.00     0.183 C 
HETATM   18  C   LIG     1       5.058 -14.364  -1.735  1.00  0.00     0.205 C 
BRANCH  15  19
HETATM   19  C   LIG     1       4.075 -10.359  -0.644  1.00  0.00     0.198 C 
BRANCH  19  20
HETATM   20  O   LIG     1       2.842 -10.150   0.055  1.00  0.00    -0.398 OA
HETATM   21  H   LIG     1       2.090 -10.110  -0.578  1.00  0.00     0.209 HD
ENDBRANCH  19  20
ENDBRANCH  15  19
BRANCH  16  22
HETATM   22  O   LIG     1       2.795 -12.843   0.605  1.00  0.00    -0.390 OA
HETATM   23  H   LIG     1       2.549 -11.944   0.965  1.00  0.00     0.210 HD
ENDBRANCH  16  22
BRANCH  17  24
HETATM   24  O   LIG     1       5.315 -14.882   0.598  1.00  0.00    -0.390 OA
HETATM   25  H   LIG     1       6.194 -14.421   0.606  1.00  0.00     0.210 HD
ENDBRANCH  17  24
BRANCH  18  26
HETATM   26  O   LIG     1       4.059 -14.327  -2.758  1.00  0.00    -0.388 OA
HETATM   27  H   LIG     1       3.498 -15.134  -2.713  1.00  0.00     0.210 HD
ENDBRANCH  18  26
ENDBRANCH  12  13
ENDBRANCH   2  12
BRANCH   6  28
HETATM   28  O   LIG     1       9.578  -9.419  -2.394  1.00  0.00    -0.360 OA
HETATM   29  H   LIG     1       8.821  -9.222  -3.013  1.00  0.00     0.217 HD
ENDBRANCH   6  28
BRANCH   9  30
HETATM   30  C   LIG     1      13.940 -10.026   0.498  1.00  0.00    -0.020 A 
HETATM   31  C   LIG     1      15.113 -10.797   0.541  1.00  0.00     0.015 A 
HETATM   32  C   LIG     1      16.360 -10.192   0.711  1.00  0.00     0.037 A 
HETATM   33  C   LIG     1      16.410  -8.797   0.830  1.00  0.00     0.065 A 
HETATM   34  C   LIG     1      15.255  -7.997   0.774  1.00  0.00     0.037 A 
HETATM   35  C   LIG     1      14.025  -8.621   0.601  1.00  0.00     0.015 A 
BRANCH  33  36
HETATM   36  O   LIG     1      17.588  -8.112   1.007  1.00  0.00    -0.361 OA
HETATM   37  H   LIG     1      18.371  -8.714   1.024  1.00  0.00     0.217 HD
ENDBRANCH  33  36
ENDBRANCH   9  30
TORSDOF 10
