REMARK  9 active torsions:
REMARK  status: ('A' for Active; 'I' for Inactive)
REMARK    1  A    between atoms: C_2  and  O_18 
REMARK    2  A    between atoms: C_9  and  C_12 
REMARK    3  A    between atoms: C_15  and  O_30 
REMARK    4  A    between atoms: O_18  and  C_20 
REMARK    5  A    between atoms: C_21  and  O_23 
REMARK    6  A    between atoms: C_22  and  C_26 
REMARK    7  A    between atoms: O_24  and  C_28 
REMARK    8  A    between atoms: O_25  and  C_27 
REMARK    9  A    between atoms: C_26  and  O_29 
ROOT
HETATM    1  C   LIG     1       7.865 -11.089  -1.979  1.00  0.00     0.038 A 
HETATM    2  C   LIG     1       7.625 -11.936  -0.877  1.00  0.00     0.074 A 
HETATM    3  C   LIG     1       8.504 -12.020   0.211  1.00  0.00     0.075 A 
HETATM    4  C   LIG     1       9.653 -11.226   0.149  1.00  0.00     0.091 A 
HETATM    5  C   LIG     1       9.941 -10.373  -0.929  1.00  0.00     0.049 A 
HETATM    6  C   LIG     1       9.021 -10.323  -1.997  1.00  0.00     0.021 A 
HETATM    7  O   LIG     1      10.498 -11.336   1.244  1.00  0.00    -0.321 OA
HETATM    8  C   LIG     1      11.677 -10.612   1.223  1.00  0.00     0.159 A 
HETATM    9  C   LIG     1      12.059  -9.782   0.230  1.00  0.00     0.048 A 
HETATM   10  C   LIG     1      11.164  -9.545  -0.940  1.00  0.00     0.197 A 
HETATM   11  O   LIG     1      11.395  -8.736  -1.815  1.00  0.00    -0.286 OA
ENDROOT
BRANCH   2  12
HETATM   12  O   LIG     1       6.515 -12.732  -0.738  1.00  0.00    -0.318 OA
BRANCH  12  13
HETATM   13  C   LIG     1       5.599 -12.919  -1.857  1.00  0.00     0.298 C 
HETATM   14  O   LIG     1       4.965 -11.699  -2.143  1.00  0.00    -0.348 OA
HETATM   15  C   LIG     1       4.048 -11.130  -1.182  1.00  0.00     0.179 C 
HETATM   16  C   LIG     1       3.339 -12.184  -0.307  1.00  0.00     0.180 C 
HETATM   17  C   LIG     1       3.261 -13.546  -1.025  1.00  0.00     0.183 C 
HETATM   18  C   LIG     1       4.683 -14.052  -1.344  1.00  0.00     0.205 C 
BRANCH  15  19
HETATM   19  C   LIG     1       4.826 -10.107  -0.335  1.00  0.00     0.198 C 
BRANCH  19  20
HETATM   20  O   LIG     1       3.875  -9.320   0.391  1.00  0.00    -0.398 OA
HETATM   21  H   LIG     1       3.551  -8.578  -0.162  1.00  0.00     0.209 HD
ENDBRANCH  19  20
ENDBRANCH  15  19
BRANCH  16  22
HETATM   22  O   LIG     1       1.973 -11.787  -0.130  1.00  0.00    -0.390 OA
HETATM   23  H   LIG     1       1.942 -10.979   0.442  1.00  0.00     0.210 HD
ENDBRANCH  16  22
BRANCH  17  24
HETATM   24  O   LIG     1       2.730 -14.534  -0.136  1.00  0.00    -0.390 OA
HETATM   25  H   LIG     1       1.857 -14.226   0.214  1.00  0.00     0.210 HD
ENDBRANCH  17  24
BRANCH  18  26
HETATM   26  O   LIG     1       4.650 -14.961  -2.449  1.00  0.00    -0.388 OA
HETATM   27  H   LIG     1       4.119 -15.758  -2.203  1.00  0.00     0.210 HD
ENDBRANCH  18  26
ENDBRANCH  12  13
ENDBRANCH   2  12
BRANCH   9  28
HETATM   28  C   LIG     1      13.358  -9.094   0.284  1.00  0.00    -0.020 A 
HETATM   29  C   LIG     1      13.456  -7.735  -0.086  1.00  0.00     0.015 A 
HETATM   30  C   LIG     1      14.673  -7.069  -0.018  1.00  0.00     0.037 A 
HETATM   31  C   LIG     1      15.804  -7.783   0.416  1.00  0.00     0.065 A 
HETATM   32  C   LIG     1      15.743  -9.137   0.771  1.00  0.00     0.037 A 
HETATM   33  C   LIG     1      14.508  -9.785   0.696  1.00  0.00     0.015 A 
BRANCH  31  34
HETATM   34  O   LIG     1      16.971  -7.058   0.463  1.00  0.00    -0.361 OA
HETATM   35  H   LIG     1      17.739  -7.606   0.754  1.00  0.00     0.217 HD
ENDBRANCH  31  34
ENDBRANCH   9  28
TORSDOF 9
