REMARK  1 active torsions:
REMARK  status: ('A' for Active; 'I' for Inactive)
REMARK    1  A    between atoms: CA_2  and  CB_4 
ROOT
ATOM      1  N   VAL A   1      -1.044   0.815  -0.375  1.00  0.00    -0.346 N 
ATOM      2  CA  VAL A   1      -1.169  -0.571   0.133  1.00  0.00     0.180 C 
ATOM      3  C   VAL A   1       0.161  -1.307  -0.147  1.00  0.00     0.243 C 
ATOM      4  O   VAL A   1       0.251  -2.437  -0.587  1.00  0.00    -0.271 OA
ATOM      5  H   VAL A   1      -1.840   1.214  -0.874  1.00  0.00     0.163 HD
ATOM      6  N   PRO A   2       1.311  -0.609   0.263  1.00  0.00    -0.337 N 
ATOM      7  CA  PRO A   2       1.290   0.866   0.485  1.00  0.00     0.179 C 
ATOM      8  C   PRO A   2       0.129   1.554  -0.251  1.00  0.00     0.241 C 
ATOM      9  CD  PRO A   2       2.657  -1.049  -0.218  1.00  0.00     0.127 C 
ATOM     10  CG  PRO A   2       3.378   0.228  -0.679  1.00  0.00     0.022 C 
ATOM     11  CB  PRO A   2       2.658   1.400   0.010  1.00  0.00     0.037 C 
ATOM     12  O   PRO A   2       0.181   2.691  -0.687  1.00  0.00    -0.271 OA
ENDROOT
BRANCH   2  13
ATOM     13  CB  VAL A   1      -2.380  -1.305  -0.512  1.00  0.00     0.009 C 
ATOM     14  CG1 VAL A   1      -3.659  -0.469  -0.396  1.00  0.00     0.012 C 
ATOM     15  CG2 VAL A   1      -2.577  -2.665   0.161  1.00  0.00     0.012 C 
ENDBRANCH   2  13
TORSDOF 1
