REMARK  4 active torsions:
REMARK  status: ('A' for Active; 'I' for Inactive)
REMARK    1  A    between atoms: CA_2  and  CB_4 
REMARK    2  A    between atoms: CB_4  and  CG_5 
REMARK    3  A    between atoms: CA_14  and  CB_16 
REMARK    4  A    between atoms: CB_16  and  CG_18 
ROOT
ATOM      1  N   PHE A   1      -0.394   0.615  -0.511  1.00  0.00    -0.346 N 
ATOM      2  CA  PHE A   1      -0.671  -0.481   0.442  1.00  0.00     0.180 C 
ATOM      3  C   PHE A   1       0.556  -1.386   0.661  1.00  0.00     0.241 C 
ATOM      4  O   PHE A   1       0.455  -2.538   1.052  1.00  0.00    -0.271 OA
ATOM      5  H   PHE A   1      -1.201   0.996  -1.014  1.00  0.00     0.163 HD
ATOM      6  N   LEU A   2       1.813  -0.843   0.445  1.00  0.00    -0.346 N 
ATOM      7  CA  LEU A   2       2.067   0.537  -0.022  1.00  0.00     0.177 C 
ATOM      8  C   LEU A   2       0.870   1.106  -0.809  1.00  0.00     0.241 C 
ATOM      9  O   LEU A   2       0.988   1.999  -1.632  1.00  0.00    -0.271 OA
ATOM     10  H   LEU A   2       2.642  -1.445   0.556  1.00  0.00     0.163 HD
ENDROOT
BRANCH   2  11
ATOM     11  CB  PHE A   1      -1.844  -1.347  -0.060  1.00  0.00     0.073 C 
BRANCH  11  12
ATOM     12  CG  PHE A   1      -3.153  -0.613   0.004  1.00  0.00    -0.056 A 
ATOM     13  CD1 PHE A   1      -3.746  -0.125  -1.170  1.00  0.00     0.007 A 
ATOM     14  CE1 PHE A   1      -4.966   0.554  -1.107  1.00  0.00     0.001 A 
ATOM     15  CZ  PHE A   1      -5.595   0.759   0.125  1.00  0.00     0.000 A 
ATOM     16  CE2 PHE A   1      -5.004   0.273   1.296  1.00  0.00     0.001 A 
ATOM     17  CD2 PHE A   1      -3.789  -0.414   1.239  1.00  0.00     0.007 A 
ENDBRANCH  11  12
ENDBRANCH   2  11
BRANCH   7  18
ATOM     18  CB  LEU A   2       3.330   0.596  -0.897  1.00  0.00     0.038 C 
BRANCH  18  19
ATOM     19  CG  LEU A   2       4.641   0.455  -0.093  1.00  0.00    -0.020 C 
ATOM     20  CD1 LEU A   2       5.767   1.233  -0.784  1.00  0.00     0.009 C 
ATOM     21  CD2 LEU A   2       5.044  -1.016   0.075  1.00  0.00     0.009 C 
ENDBRANCH  18  19
ENDBRANCH   7  18
TORSDOF 4
