REMARK  5 active torsions:
REMARK  status: ('A' for Active; 'I' for Inactive)
REMARK    1  A    between atoms: C_1  and  C_7 
REMARK    2  A    between atoms: C_1  and  C_6 
REMARK    3  A    between atoms: C_6  and  O_17 
REMARK    4  A    between atoms: C_7  and  C_8 
REMARK    5  A    between atoms: C_10  and  C_11 
ROOT
HETATM    1  C   LIG     1       6.700  -8.474  -0.918  1.00  0.00     0.271 A 
HETATM    2  O   LIG     1       7.921  -9.184  -0.544  1.00  0.00    -0.298 OA
HETATM    3  C   LIG     1       7.821 -10.512  -0.941  1.00  0.00     0.149 A 
HETATM    4  C   LIG     1       6.532 -10.689  -1.675  1.00  0.00     0.320 A 
HETATM    5  O   LIG     1       5.911  -9.415  -1.673  1.00  0.00    -0.267 OA
HETATM    6  O   LIG     1       5.989 -11.598  -2.221  1.00  0.00    -0.257 OA
HETATM    7  C   LIG     1       8.771 -11.426  -0.695  1.00  0.00     0.054 C 
ENDROOT
BRANCH   1   8
HETATM    8  C   LIG     1       7.048  -7.275  -1.786  1.00  0.00     0.119 C 
BRANCH   8   9
HETATM    9  C   LIG     1       7.820  -6.216  -1.049  1.00  0.00    -0.052 A 
HETATM   10  C   LIG     1       7.313  -4.911  -0.966  1.00  0.00     0.007 A 
HETATM   11  C   LIG     1       8.047  -3.919  -0.310  1.00  0.00     0.001 A 
HETATM   12  C   LIG     1       9.283  -4.223   0.268  1.00  0.00     0.000 A 
HETATM   13  C   LIG     1       9.785  -5.526   0.193  1.00  0.00     0.001 A 
HETATM   14  C   LIG     1       9.058  -6.522  -0.462  1.00  0.00     0.007 A 
ENDBRANCH   8   9
ENDBRANCH   1   8
BRANCH   1  15
HETATM   15  C   LIG     1       5.890  -8.118   0.357  1.00  0.00     0.323 C 
HETATM   16  O   LIG     1       5.056  -7.257   0.462  1.00  0.00    -0.259 OA
BRANCH  15  17
HETATM   17  O   LIG     1       6.263  -8.955   1.366  1.00  0.00    -0.322 OA
HETATM   18  C   LIG     1       5.592  -8.768   2.646  1.00  0.00     0.213 C 
ENDBRANCH  15  17
ENDBRANCH   1  15
BRANCH   7  19
HETATM   19  C   LIG     1      10.032 -11.206   0.013  1.00  0.00    -0.033 A 
HETATM   20  C   LIG     1      10.514  -9.920   0.308  1.00  0.00     0.011 A 
HETATM   21  C   LIG     1      11.728  -9.761   0.982  1.00  0.00     0.001 A 
HETATM   22  C   LIG     1      12.471 -10.879   1.368  1.00  0.00     0.000 A 
HETATM   23  C   LIG     1      11.998 -12.165   1.077  1.00  0.00     0.001 A 
HETATM   24  C   LIG     1      10.789 -12.331   0.402  1.00  0.00     0.011 A 
ENDBRANCH   7  19
TORSDOF 5
