REMARK  4 active torsions:
REMARK  status: ('A' for Active; 'I' for Inactive)
REMARK    1  A    between atoms: C_2  and  C_13 
REMARK    2  A    between atoms: C_5  and  O_10 
REMARK    3  A    between atoms: C_6  and  O_12 
REMARK    4  A    between atoms: C_13  and  O_14 
ROOT
HETATM    1  C   LIG     1       7.827  -8.623   0.550  1.00  0.00     0.118 A 
HETATM    2  C   LIG     1       9.363  -8.719   0.272  1.00  0.00     0.081 A 
HETATM    3  C   LIG     1       9.755  -7.301  -0.258  1.00  0.00     0.165 A 
HETATM    4  C   LIG     1       8.544  -6.473  -0.265  1.00  0.00     0.084 A 
HETATM    5  C   LIG     1       7.484  -7.201   0.157  1.00  0.00     0.059 A 
HETATM    6  C   LIG     1       7.173  -9.693  -0.359  1.00  0.00     0.268 C 
HETATM    7  O   LIG     1       8.160 -10.120  -1.290  1.00  0.00    -0.359 OA
HETATM    8  C   LIG     1       9.499  -9.775  -0.839  1.00  0.00     0.192 C 
HETATM    9  O   LIG     1      10.871  -6.993  -0.595  1.00  0.00    -0.292 OA
ENDROOT
BRANCH   2  10
HETATM   10  C   LIG     1      10.159  -9.095   1.535  1.00  0.00     0.187 C 
BRANCH  10  11
HETATM   11  O   LIG     1      11.282  -9.929   1.225  1.00  0.00    -0.395 OA
HETATM   12  C   LIG     1      12.464  -9.226   0.784  1.00  0.00     0.201 C 
ENDBRANCH  10  11
ENDBRANCH   2  10
BRANCH   6  13
HETATM   13  O   LIG     1       6.780 -10.812   0.413  1.00  0.00    -0.370 OA
HETATM   14  H   LIG     1       7.520 -11.444   0.539  1.00  0.00     0.212 HD
ENDBRANCH   6  13
BRANCH   5  15
HETATM   15  O   LIG     1       6.181  -6.895   0.304  1.00  0.00    -0.360 OA
HETATM   16  C   LIG     1       5.778  -5.541  -0.064  1.00  0.00     0.209 C 
ENDBRANCH   5  15
TORSDOF 4
