REMARK  5 active torsions:
REMARK  status: ('A' for Active; 'I' for Inactive)
REMARK    1  A    between atoms: C_1  and  O_14 
REMARK    2  A    between atoms: C_3  and  O_15 
REMARK    3  A    between atoms: C_9  and  C_12 
REMARK    4  A    between atoms: C_12  and  C_13 
REMARK    5  A    between atoms: C_13  and  O_17 
ROOT
HETATM    1  C   LIG     1       4.092  -7.559   0.090  1.00  0.00     0.071 A 
HETATM    2  C   LIG     1       4.110  -8.955   0.256  1.00  0.00     0.074 A 
HETATM    3  C   LIG     1       5.355  -9.587   0.213  1.00  0.00     0.085 A 
HETATM    4  C   LIG     1       6.572  -8.885   0.013  1.00  0.00     0.083 A 
HETATM    5  C   LIG     1       6.502  -7.464  -0.152  1.00  0.00    -0.012 A 
HETATM    6  C   LIG     1       5.265  -6.812  -0.112  1.00  0.00     0.049 A 
HETATM    7  C   LIG     1       7.832  -9.579  -0.025  1.00  0.00     0.302 A 
HETATM    8  O   LIG     1       9.010  -8.737  -0.243  1.00  0.00    -0.279 OA
HETATM    9  C   LIG     1       8.921  -7.387  -0.397  1.00  0.00     0.060 A 
HETATM   10  C   LIG     1       7.730  -6.738  -0.356  1.00  0.00     0.045 A 
HETATM   11  O   LIG     1       8.168 -10.723   0.085  1.00  0.00    -0.259 OA
ENDROOT
BRANCH   9  12
HETATM   12  C   LIG     1      10.265  -6.783  -0.624  1.00  0.00     0.096 C 
BRANCH  12  13
HETATM   13  C   LIG     1      11.391  -7.475   0.184  1.00  0.00     0.120 C 
HETATM   14  C   LIG     1      12.671  -6.651   0.197  1.00  0.00     0.040 C 
BRANCH  13  15
HETATM   15  O   LIG     1      11.756  -8.700  -0.465  1.00  0.00    -0.396 OA
HETATM   16  H   LIG     1      10.993  -9.331  -0.468  1.00  0.00     0.210 HD
ENDBRANCH  13  15
ENDBRANCH  12  13
ENDBRANCH   9  12
BRANCH   3  17
HETATM   17  O   LIG     1       5.471 -10.932   0.364  1.00  0.00    -0.360 OA
HETATM   18  H   LIG     1       4.596 -11.385   0.501  1.00  0.00     0.217 HD
ENDBRANCH   3  17
BRANCH   1  19
HETATM   19  O   LIG     1       2.968  -6.788   0.105  1.00  0.00    -0.356 OA
HETATM   20  C   LIG     1       1.683  -7.432   0.303  1.00  0.00     0.210 C 
ENDBRANCH   1  19
TORSDOF 5
