REMARK  6 active torsions:
REMARK  status: ('A' for Active; 'I' for Inactive)
REMARK    1  A    between atoms: C_1  and  O_14 
REMARK    2  A    between atoms: C_3  and  O_15 
REMARK    3  A    between atoms: C_6  and  O_18 
REMARK    4  A    between atoms: C_9  and  C_12 
REMARK    5  A    between atoms: C_12  and  C_13 
REMARK    6  A    between atoms: C_13  and  O_17 
ROOT
HETATM    1  C   LIG     1       5.281  -7.409   0.669  1.00  0.00     0.102 A 
HETATM    2  C   LIG     1       4.965  -8.666   0.141  1.00  0.00     0.077 A 
HETATM    3  C   LIG     1       6.005  -9.432  -0.396  1.00  0.00     0.085 A 
HETATM    4  C   LIG     1       7.351  -8.984  -0.427  1.00  0.00     0.086 A 
HETATM    5  C   LIG     1       7.653  -7.694   0.101  1.00  0.00     0.021 A 
HETATM    6  C   LIG     1       6.613  -6.930   0.650  1.00  0.00     0.110 A 
HETATM    7  C   LIG     1       8.399  -9.814  -0.983  1.00  0.00     0.302 A 
HETATM    8  O   LIG     1       9.744  -9.249  -0.949  1.00  0.00    -0.279 OA
HETATM    9  C   LIG     1       9.992  -8.008  -0.446  1.00  0.00     0.060 A 
HETATM   10  C   LIG     1       9.012  -7.225   0.068  1.00  0.00     0.048 A 
HETATM   11  O   LIG     1       8.416 -10.903  -1.479  1.00  0.00    -0.259 OA
ENDROOT
BRANCH   9  12
HETATM   12  C   LIG     1      11.444  -7.688  -0.574  1.00  0.00     0.096 C 
BRANCH  12  13
HETATM   13  C   LIG     1      11.993  -6.905   0.636  1.00  0.00     0.120 C 
HETATM   14  C   LIG     1      13.513  -6.813   0.597  1.00  0.00     0.040 C 
BRANCH  13  15
HETATM   15  O   LIG     1      11.416  -5.593   0.675  1.00  0.00    -0.396 OA
HETATM   16  H   LIG     1      11.729  -5.037  -0.064  1.00  0.00     0.210 HD
ENDBRANCH  13  15
ENDBRANCH  12  13
ENDBRANCH   9  12
BRANCH   6  17
HETATM   17  O   LIG     1       6.755  -5.653   1.175  1.00  0.00    -0.357 OA
HETATM   18  H   LIG     1       7.693  -5.505   1.467  1.00  0.00     0.217 HD
ENDBRANCH   6  17
BRANCH   3  19
HETATM   19  O   LIG     1       5.779 -10.664  -0.923  1.00  0.00    -0.360 OA
HETATM   20  H   LIG     1       4.821 -10.932  -0.877  1.00  0.00     0.217 HD
ENDBRANCH   3  19
BRANCH   1  21
HETATM   21  O   LIG     1       4.271  -6.672   1.193  1.00  0.00    -0.358 OA
HETATM   22  H   LIG     1       4.614  -5.790   1.547  1.00  0.00     0.217 HD
ENDBRANCH   1  21
TORSDOF 6
