REMARK  4 active torsions:
REMARK  status: ('A' for Active; 'I' for Inactive)
REMARK    1  A    between atoms: C_2  and  O_8 
REMARK    2  A    between atoms: C_3  and  O_9 
REMARK    3  A    between atoms: C_5  and  C_7 
REMARK    4  A    between atoms: C_7  and  O_10 
ROOT
HETATM    1  C   LIG     1       6.942  -7.300   0.099  1.00  0.00     0.040 A 
HETATM    2  C   LIG     1       6.999  -8.687   0.197  1.00  0.00     0.098 A 
HETATM    3  C   LIG     1       8.251  -9.366   0.246  1.00  0.00     0.099 A 
HETATM    4  C   LIG     1       9.436  -8.639   0.196  1.00  0.00     0.057 A 
HETATM    5  C   LIG     1       9.374  -7.236   0.098  1.00  0.00     0.040 A 
HETATM    6  C   LIG     1       8.142  -6.576   0.049  1.00  0.00     0.021 A 
ENDROOT
BRANCH   5   7
HETATM    7  C   LIG     1      10.608  -6.404   0.040  1.00  0.00     0.176 C 
HETATM    8  O   LIG     1      10.655  -5.202  -0.053  1.00  0.00    -0.646 OA
BRANCH   7   9
HETATM    9  O   LIG     1      11.823  -7.053   0.098  1.00  0.00    -0.773 OA
HETATM   10  H   LIG     1      11.777  -8.037   0.175  1.00  0.00     0.167 HD
ENDBRANCH   7   9
ENDBRANCH   5   7
BRANCH   3  11
HETATM   11  O   LIG     1       8.350 -10.728   0.342  1.00  0.00    -0.358 OA
HETATM   12  H   LIG     1       7.443 -11.150   0.371  1.00  0.00     0.217 HD
ENDBRANCH   3  11
BRANCH   2  13
HETATM   13  O   LIG     1       5.906  -9.515   0.255  1.00  0.00    -0.358 OA
HETATM   14  H   LIG     1       5.054  -9.008   0.219  1.00  0.00     0.217 HD
ENDBRANCH   2  13
TORSDOF 4
