REMARK  1 active torsions:
REMARK  status: ('A' for Active; 'I' for Inactive)
REMARK    1  A    between atoms: C_3  and  O_13 
ROOT
HETATM    1  C   LIG     1       6.459  -6.966  -0.088  1.00  0.00     0.010 A 
HETATM    2  C   LIG     1       6.480  -8.352  -0.194  1.00  0.00     0.038 A 
HETATM    3  C   LIG     1       7.710  -9.022  -0.056  1.00  0.00     0.082 A 
HETATM    4  C   LIG     1       8.907  -8.323   0.187  1.00  0.00     0.079 A 
HETATM    5  C   LIG     1       8.860  -6.913   0.257  1.00  0.00    -0.031 A 
HETATM    6  C   LIG     1       7.638  -6.230   0.134  1.00  0.00    -0.054 A 
HETATM    7  C   LIG     1      10.178  -9.044   0.414  1.00  0.00     0.297 C 
HETATM    8  O   LIG     1      11.354  -8.324   0.238  1.00  0.00    -0.312 OA
HETATM    9  C   LIG     1      11.305  -6.940  -0.221  1.00  0.00     0.132 C 
HETATM   10  C   LIG     1      10.158  -6.194   0.475  1.00  0.00     0.072 C 
HETATM   11  O   LIG     1      10.341 -10.185   0.767  1.00  0.00    -0.259 OA
HETATM   12  C   LIG     1       7.563  -4.741   0.239  1.00  0.00     0.049 C 
HETATM   13  C   LIG     1      12.679  -6.398   0.133  1.00  0.00     0.040 C 
ENDROOT
BRANCH   3  14
HETATM   14  O   LIG     1       7.804 -10.377  -0.168  1.00  0.00    -0.360 OA
HETATM   15  H   LIG     1       6.922 -10.809  -0.312  1.00  0.00     0.217 HD
ENDBRANCH   3  14
TORSDOF 1
