REMARK  2 active torsions:
REMARK  status: ('A' for Active; 'I' for Inactive)
REMARK    1  A    between atoms: C_3  and  O_13 
REMARK    2  A    between atoms: C_10  and  O_15 
ROOT
HETATM    1  C   LIG     1       5.745  -7.412  -0.267  1.00  0.00     0.010 A 
HETATM    2  C   LIG     1       5.786  -8.796  -0.187  1.00  0.00     0.038 A 
HETATM    3  C   LIG     1       7.026  -9.428   0.041  1.00  0.00     0.082 A 
HETATM    4  C   LIG     1       8.213  -8.688   0.181  1.00  0.00     0.082 A 
HETATM    5  C   LIG     1       8.146  -7.283   0.052  1.00  0.00    -0.002 A 
HETATM    6  C   LIG     1       6.921  -6.637  -0.147  1.00  0.00    -0.052 A 
HETATM    7  C   LIG     1       9.486  -9.361   0.519  1.00  0.00     0.297 C 
HETATM    8  O   LIG     1      10.659  -8.639   0.313  1.00  0.00    -0.309 OA
HETATM    9  C   LIG     1      10.618  -7.360  -0.384  1.00  0.00     0.161 C 
HETATM   10  C   LIG     1       9.443  -6.500   0.141  1.00  0.00     0.182 C 
HETATM   11  O   LIG     1       9.654 -10.449   1.006  1.00  0.00    -0.259 OA
HETATM   12  C   LIG     1       6.824  -5.149  -0.224  1.00  0.00     0.049 C 
HETATM   13  C   LIG     1      11.978  -6.751  -0.105  1.00  0.00     0.043 C 
ENDROOT
BRANCH   3  14
HETATM   14  O   LIG     1       7.137 -10.784   0.121  1.00  0.00    -0.360 OA
HETATM   15  H   LIG     1       6.259 -11.243   0.045  1.00  0.00     0.217 HD
ENDBRANCH   3  14
BRANCH  10  16
HETATM   16  O   LIG     1       9.656  -6.059   1.481  1.00  0.00    -0.388 OA
HETATM   17  H   LIG     1       9.829  -6.833   2.071  1.00  0.00     0.210 HD
ENDBRANCH  10  16
TORSDOF 2
