REMARK  2 active torsions:
REMARK  status: ('A' for Active; 'I' for Inactive)
REMARK    1  A    between atoms: C_3  and  O_13 
REMARK    2  A    between atoms: C_10  and  O_15 
ROOT
HETATM    1  C   LIG     1       6.306  -7.419  -0.198  1.00  0.00     0.010 A 
HETATM    2  C   LIG     1       6.342  -8.801  -0.238  1.00  0.00     0.038 A 
HETATM    3  C   LIG     1       7.583  -9.449  -0.063  1.00  0.00     0.082 A 
HETATM    4  C   LIG     1       8.769  -8.721   0.135  1.00  0.00     0.082 A 
HETATM    5  C   LIG     1       8.712  -7.307   0.109  1.00  0.00    -0.002 A 
HETATM    6  C   LIG     1       7.483  -6.652  -0.017  1.00  0.00    -0.052 A 
HETATM    7  C   LIG     1      10.029  -9.437   0.437  1.00  0.00     0.297 C 
HETATM    8  O   LIG     1      11.216  -8.733   0.268  1.00  0.00    -0.309 OA
HETATM    9  C   LIG     1      11.199  -7.414  -0.337  1.00  0.00     0.161 C 
HETATM   10  C   LIG     1      10.032  -6.575   0.250  1.00  0.00     0.182 C 
HETATM   11  O   LIG     1      10.169 -10.555   0.862  1.00  0.00    -0.259 OA
HETATM   12  C   LIG     1       7.329  -5.167   0.042  1.00  0.00     0.049 C 
HETATM   13  C   LIG     1      12.558  -6.833   0.007  1.00  0.00     0.043 C 
ENDROOT
BRANCH   3  14
HETATM   14  O   LIG     1       7.696 -10.806  -0.091  1.00  0.00    -0.360 OA
HETATM   15  H   LIG     1       6.818 -11.259  -0.194  1.00  0.00     0.217 HD
ENDBRANCH   3  14
BRANCH  10  16
HETATM   16  O   LIG     1      10.054  -5.305  -0.405  1.00  0.00    -0.388 OA
HETATM   17  H   LIG     1       9.768  -5.388  -1.342  1.00  0.00     0.210 HD
ENDBRANCH  10  16
TORSDOF 2
