REMARK  2 active torsions:
REMARK  status: ('A' for Active; 'I' for Inactive)
REMARK    1  A    between atoms: C_1  and  O_15 
REMARK    2  A    between atoms: C_3  and  O_13 
ROOT
HETATM    1  C   LIG     1      -2.493   0.718  -0.339  1.00  0.00     0.128 C 
HETATM    2  C   LIG     1      -2.521  -0.763   0.087  1.00  0.00     0.097 C 
HETATM    3  C   LIG     1      -1.155  -1.361   0.156  1.00  0.00     0.058 C 
HETATM    4  C   LIG     1       0.014  -0.666   0.025  1.00  0.00     0.051 C 
HETATM    5  C   LIG     1       0.009   0.813  -0.257  1.00  0.00     0.036 C 
HETATM    6  C   LIG     1      -1.288   1.488   0.261  1.00  0.00     0.019 C 
HETATM    7  C   LIG     1       1.284  -1.360   0.168  1.00  0.00     0.292 C 
HETATM    8  O   LIG     1       2.477  -0.702   0.083  1.00  0.00    -0.313 OA
HETATM    9  C   LIG     1       2.512   0.739  -0.231  1.00  0.00     0.129 C 
HETATM   10  C   LIG     1       1.280   1.451   0.325  1.00  0.00     0.042 C 
HETATM   11  O   LIG     1       1.372  -2.569   0.387  1.00  0.00    -0.259 OA
HETATM   12  C   LIG     1      -1.374   1.556   1.786  1.00  0.00     0.013 C 
HETATM   13  C   LIG     1       3.818   1.191   0.397  1.00  0.00     0.040 C 
ENDROOT
BRANCH   1  14
HETATM   14  O   LIG     1      -3.728   1.335   0.022  1.00  0.00    -0.395 OA
HETATM   15  H   LIG     1      -3.786   1.475   0.993  1.00  0.00     0.210 HD
ENDBRANCH   1  14
BRANCH   3  16
HETATM   16  O   LIG     1      -1.218  -2.684   0.386  1.00  0.00    -0.364 OA
HETATM   17  H   LIG     1      -0.266  -3.130   0.460  1.00  0.00     0.217 HD
ENDBRANCH   3  16
TORSDOF 2
