REMARK  4 active torsions:
REMARK  status: ('A' for Active; 'I' for Inactive)
REMARK    1  A    between atoms: C_2  and  O_10 
REMARK    2  A    between atoms: C_5  and  O_9 
REMARK    3  A    between atoms: C_6  and  C_7 
REMARK    4  A    between atoms: C_7  and  O_8 
ROOT
HETATM    1  C   LIG     1       6.963  -8.459   0.139  1.00  0.00     0.041 C 
HETATM    2  C   LIG     1       6.991  -9.913  -0.359  1.00  0.00     0.118 C 
HETATM    3  C   LIG     1       8.167 -10.700   0.244  1.00  0.00     0.034 C 
HETATM    4  C   LIG     1       9.490 -10.003  -0.070  1.00  0.00     0.034 C 
HETATM    5  C   LIG     1       9.468  -8.542   0.409  1.00  0.00     0.124 C 
HETATM    6  C   LIG     1       8.283  -7.744  -0.178  1.00  0.00     0.040 C 
ENDROOT
BRANCH   6   7
HETATM    7  C   LIG     1       8.263  -6.303   0.368  1.00  0.00     0.171 C 
BRANCH   7   8
HETATM    8  O   LIG     1       9.246  -5.495  -0.282  1.00  0.00    -0.400 OA
HETATM    9  H   LIG     1      10.119  -5.970  -0.301  1.00  0.00     0.209 HD
ENDBRANCH   7   8
ENDBRANCH   6   7
BRANCH   5  10
HETATM   10  O   LIG     1      10.638  -7.867  -0.112  1.00  0.00    -0.395 OA
HETATM   11  H   LIG     1      11.455  -8.242   0.260  1.00  0.00     0.210 HD
ENDBRANCH   5  10
BRANCH   2  12
HETATM   12  O   LIG     1       5.755 -10.562  -0.041  1.00  0.00    -0.396 OA
HETATM   13  H   LIG     1       5.598 -10.592   0.920  1.00  0.00     0.210 HD
ENDBRANCH   2  12
TORSDOF 4
