REMARK  3 active torsions:
REMARK  status: ('A' for Active; 'I' for Inactive)
REMARK    1  A    between atoms: C_3  and  O_13 
REMARK    2  A    between atoms: C_6  and  C_12 
REMARK    3  A    between atoms: C_12  and  O_15 
ROOT
HETATM    1  C   LIG     1       6.119  -7.426   0.006  1.00  0.00     0.012 A 
HETATM    2  C   LIG     1       6.141  -8.805  -0.139  1.00  0.00     0.038 A 
HETATM    3  C   LIG     1       7.378  -9.476  -0.043  1.00  0.00     0.082 A 
HETATM    4  C   LIG     1       8.579  -8.781   0.199  1.00  0.00     0.079 A 
HETATM    5  C   LIG     1       8.528  -7.373   0.316  1.00  0.00    -0.028 A 
HETATM    6  C   LIG     1       7.306  -6.696   0.225  1.00  0.00    -0.027 A 
HETATM    7  C   LIG     1       9.857  -9.503   0.371  1.00  0.00     0.297 C 
HETATM    8  O   LIG     1      11.026  -8.767   0.204  1.00  0.00    -0.312 OA
HETATM    9  C   LIG     1      10.965  -7.367  -0.197  1.00  0.00     0.132 C 
HETATM   10  C   LIG     1       9.825  -6.659   0.549  1.00  0.00     0.072 C 
HETATM   11  O   LIG     1      10.032 -10.657   0.669  1.00  0.00    -0.259 OA
HETATM   12  C   LIG     1      12.340  -6.831   0.156  1.00  0.00     0.040 C 
ENDROOT
BRANCH   6  13
HETATM   13  C   LIG     1       7.199  -5.203   0.369  1.00  0.00     0.203 C 
BRANCH  13  14
HETATM   14  O   LIG     1       6.244  -4.655  -0.551  1.00  0.00    -0.396 OA
HETATM   15  H   LIG     1       6.491  -4.877  -1.473  1.00  0.00     0.209 HD
ENDBRANCH  13  14
ENDBRANCH   6  13
BRANCH   3  16
HETATM   16  O   LIG     1       7.473 -10.823  -0.197  1.00  0.00    -0.360 OA
HETATM   17  H   LIG     1       6.590 -11.256  -0.340  1.00  0.00     0.217 HD
ENDBRANCH   3  16
TORSDOF 3
