REMARK  3 active torsions:
REMARK  status: ('A' for Active; 'I' for Inactive)
REMARK    1  A    between atoms: C_1  and  C_10 
REMARK    2  A    between atoms: C_6  and  C_14 
REMARK    3  A    between atoms: C_14  and  O_15 
ROOT
HETATM    1  C   LIG     1       6.069  -6.649  -0.163  1.00  0.00     0.019 C 
HETATM    2  C   LIG     1       5.948  -7.955  -0.411  1.00  0.00     0.095 C 
HETATM    3  C   LIG     1       6.771  -8.715  -1.379  1.00  0.00     0.283 C 
HETATM    4  O   LIG     1       8.121  -8.884  -1.056  1.00  0.00    -0.316 OA
HETATM    5  C   LIG     1       8.674  -8.209   0.089  1.00  0.00     0.206 C 
HETATM    6  C   LIG     1       9.242  -6.837  -0.316  1.00  0.00     0.137 C 
HETATM    7  N   LIG     1       8.333  -5.967  -1.087  1.00  0.00    -0.348 N 
HETATM    8  C   LIG     1       6.958  -5.755  -0.986  1.00  0.00     0.248 C 
HETATM    9  O   LIG     1       6.418  -9.277  -2.381  1.00  0.00    -0.260 OA
HETATM   10  O   LIG     1       6.487  -4.833  -1.638  1.00  0.00    -0.268 OA
HETATM   11  H   LIG     1       8.834  -5.247  -1.631  1.00  0.00     0.163 HD
ENDROOT
BRANCH   6  12
HETATM   12  C   LIG     1       9.744  -6.058   0.944  1.00  0.00     0.139 C 
HETATM   13  C   LIG     1      10.704  -6.866   1.805  1.00  0.00     0.041 C 
BRANCH  12  14
HETATM   14  O   LIG     1      10.367  -4.852   0.492  1.00  0.00    -0.394 OA
HETATM   15  H   LIG     1      11.259  -5.019   0.128  1.00  0.00     0.210 HD
ENDBRANCH  12  14
ENDBRANCH   6  12
BRANCH   1  16
HETATM   16  C   LIG     1       5.234  -5.887   0.852  1.00  0.00     0.016 C 
HETATM   17  C   LIG     1       3.974  -5.366   0.152  1.00  0.00     0.015 C 
HETATM   18  C   LIG     1       4.891  -6.736   2.078  1.00  0.00     0.015 C 
ENDBRANCH   1  16
TORSDOF 3
