REMARK  13 active torsions:
REMARK  status: ('A' for Active; 'I' for Inactive)
REMARK    1  A    between atoms: C_1  and  O_14 
REMARK    2  A    between atoms: C_3  and  O_12 
REMARK    3  A    between atoms: C_4  and  C_7 
REMARK    4  A    between atoms: C_5  and  C_10 
REMARK    5  A    between atoms: C_7  and  O_8 
REMARK    6  A    between atoms: C_9  and  O_15 
REMARK    7  A    between atoms: C_9  and  C_13 
REMARK    8  A    between atoms: C_9  and  C_10 
REMARK    9  A    between atoms: C_13  and  C_16 
REMARK   10  A    between atoms: C_16  and  C_17 
REMARK   11  A    between atoms: C_17  and  C_18 
REMARK   12  A    between atoms: C_18  and  C_19 
REMARK   13  A    between atoms: C_19  and  C_20 
ROOT
HETATM    1  C   LIG     1       3.460  -5.965  -0.645  1.00  0.00     0.068 A 
HETATM    2  C   LIG     1       3.252  -7.351  -0.644  1.00  0.00     0.074 A 
HETATM    3  C   LIG     1       4.271  -8.140  -0.092  1.00  0.00     0.085 A 
HETATM    4  C   LIG     1       5.448  -7.587   0.447  1.00  0.00     0.077 A 
HETATM    5  C   LIG     1       5.616  -6.179   0.421  1.00  0.00    -0.033 A 
HETATM    6  C   LIG     1       4.620  -5.368  -0.120  1.00  0.00     0.044 A 
ENDROOT
BRANCH   5   7
HETATM    7  C   LIG     1       6.863  -5.570   0.988  1.00  0.00     0.071 C 
BRANCH   7   8
HETATM    8  C   LIG     1       8.060  -5.729   0.019  1.00  0.00     0.122 C 
BRANCH   8   9
HETATM    9  O   LIG     1       7.947  -4.779  -1.042  1.00  0.00    -0.395 OA
HETATM   10  H   LIG     1       8.087  -3.866  -0.727  1.00  0.00     0.210 HD
ENDBRANCH   8   9
BRANCH   8  11
HETATM   11  C   LIG     1       9.394  -5.565   0.763  1.00  0.00     0.032 C 
BRANCH  11  12
HETATM   12  C   LIG     1      10.578  -5.760  -0.192  1.00  0.00     0.002 C 
BRANCH  12  13
HETATM   13  C   LIG     1      11.915  -5.467   0.499  1.00  0.00     0.000 C 
BRANCH  13  14
HETATM   14  C   LIG     1      13.096  -5.683  -0.457  1.00  0.00     0.000 C 
BRANCH  14  15
HETATM   15  C   LIG     1      14.436  -5.392   0.231  1.00  0.00    -0.000 C 
BRANCH  15  16
HETATM   16  C   LIG     1      15.618  -5.608  -0.724  1.00  0.00    -0.005 C 
HETATM   17  C   LIG     1      16.954  -5.317  -0.044  1.00  0.00     0.005 C 
ENDBRANCH  15  16
ENDBRANCH  14  15
ENDBRANCH  13  14
ENDBRANCH  12  13
ENDBRANCH  11  12
ENDBRANCH   8  11
ENDBRANCH   7   8
ENDBRANCH   5   7
BRANCH   4  18
HETATM   18  C   LIG     1       6.486  -8.446   1.038  1.00  0.00     0.179 C 
HETATM   19  O   LIG     1       6.697  -8.735   2.193  1.00  0.00    -0.646 OA
BRANCH  18  20
HETATM   20  O   LIG     1       7.347  -8.909   0.063  1.00  0.00    -0.773 OA
HETATM   21  H   LIG     1       8.040  -9.522   0.427  1.00  0.00     0.167 HD
ENDBRANCH  18  20
ENDBRANCH   4  18
BRANCH   3  22
HETATM   22  O   LIG     1       4.167  -9.499  -0.033  1.00  0.00    -0.359 OA
HETATM   23  H   LIG     1       3.322  -9.838  -0.428  1.00  0.00     0.217 HD
ENDBRANCH   3  22
BRANCH   1  24
HETATM   24  O   LIG     1       2.540  -5.096  -1.154  1.00  0.00    -0.361 OA
HETATM   25  H   LIG     1       1.742  -5.554  -1.523  1.00  0.00     0.217 HD
ENDBRANCH   1  24
TORSDOF 13
