REMARK  1 active torsions:
REMARK  status: ('A' for Active; 'I' for Inactive)
REMARK    1  A    between atoms: C_3  and  O_13 
ROOT
HETATM    1  C   LIG     1       4.764  -5.972  -0.089  1.00  0.00     0.010 A 
HETATM    2  C   LIG     1       4.750  -7.358  -0.192  1.00  0.00     0.038 A 
HETATM    3  C   LIG     1       5.961  -8.062  -0.067  1.00  0.00     0.085 A 
HETATM    4  C   LIG     1       7.178  -7.379   0.159  1.00  0.00     0.079 A 
HETATM    5  C   LIG     1       7.166  -5.971   0.233  1.00  0.00    -0.031 A 
HETATM    6  C   LIG     1       5.959  -5.260   0.122  1.00  0.00    -0.054 A 
HETATM    7  C   LIG     1       8.433  -8.133   0.359  1.00  0.00     0.297 C 
HETATM    8  O   LIG     1       9.627  -7.438   0.195  1.00  0.00    -0.312 OA
HETATM    9  C   LIG     1       9.610  -6.050  -0.252  1.00  0.00     0.132 C 
HETATM   10  C   LIG     1       8.481  -5.282   0.447  1.00  0.00     0.072 C 
HETATM   11  O   LIG     1       8.570  -9.288   0.677  1.00  0.00    -0.259 OA
HETATM   12  C   LIG     1       5.918  -3.769   0.228  1.00  0.00     0.049 C 
HETATM   13  C   LIG     1      10.997  -5.542   0.105  1.00  0.00     0.040 C 
ENDROOT
BRANCH   3  14
HETATM   14  O   LIG     1       6.092  -9.417  -0.158  1.00  0.00    -0.355 OA
HETATM   15  C   LIG     1       4.897 -10.213  -0.366  1.00  0.00     0.210 C 
ENDBRANCH   3  14
TORSDOF 1
