REMARK  4 active torsions:
REMARK  status: ('A' for Active; 'I' for Inactive)
REMARK    1  A    between atoms: C_3  and  C_10 
REMARK    2  A    between atoms: C_4  and  O_7 
REMARK    3  A    between atoms: C_5  and  O_8 
REMARK    4  A    between atoms: C_6  and  O_13 
ROOT
HETATM    1  C   LIG     1      -1.782   1.169   0.422  1.00  0.00     0.040 C 
HETATM    2  C   LIG     1      -1.487  -0.262   0.884  1.00  0.00     0.010 C 
HETATM    3  C   LIG     1      -0.463  -0.936  -0.048  1.00  0.00     0.020 C 
HETATM    4  C   LIG     1       0.908  -0.249   0.112  1.00  0.00     0.154 C 
HETATM    5  C   LIG     1       0.788   1.273   0.378  1.00  0.00     0.181 C 
HETATM    6  C   LIG     1      -0.543   1.907  -0.118  1.00  0.00     0.082 C 
HETATM    7  C   LIG     1      -0.569   3.404   0.191  1.00  0.00     0.049 C 
ENDROOT
BRANCH   3   8
HETATM    8  C   LIG     1      -0.400  -2.468   0.176  1.00  0.00    -0.016 C 
HETATM    9  C   LIG     1       0.736  -3.106  -0.632  1.00  0.00     0.010 C 
HETATM   10  C   LIG     1      -1.738  -3.121  -0.199  1.00  0.00     0.010 C 
ENDBRANCH   3   8
BRANCH   4  11
HETATM   11  O   LIG     1       1.702  -0.800   1.175  1.00  0.00    -0.393 OA
HETATM   12  H   LIG     1       1.157  -0.990   1.962  1.00  0.00     0.210 HD
ENDBRANCH   4  11
BRANCH   5  13
HETATM   13  O   LIG     1       1.793   1.960  -0.395  1.00  0.00    -0.390 OA
HETATM   14  H   LIG     1       2.685   1.636  -0.145  1.00  0.00     0.210 HD
ENDBRANCH   5  13
BRANCH   6  15
HETATM   15  O   LIG     1      -0.623   1.730  -1.546  1.00  0.00    -0.388 OA
HETATM   16  H   LIG     1       0.205   2.056  -1.971  1.00  0.00     0.210 HD
ENDBRANCH   6  15
TORSDOF 4
